<nodes xmlns:xsi="http://www.w3.org/2001/XMLSchema-instance" version="1.1" xsi:noNamespaceSchemaLocation="http://sumo.dlr.de/xsd/nodes_file.xsd">
    <node id="54808" type="unregulated" />
    <node id="54809" type="allway_stop" />
    <node id="54810" tl="54810" type="traffic_light" />
    <node id="54811" tl="54811" type="traffic_light" />
    <node id="54812" tl="54812" type="traffic_light" />
    <node id="54813" tl="54813" type="traffic_light" />
    <node id="54814" type="unregulated" />
    <node id="54815" tl="54815" type="traffic_light" />
    <node id="54816" type="unregulated" />
    <node id="54817" type="unregulated" />
    <node id="54818" type="unregulated" />
    <node id="54819" type="unregulated" />
    <node id="54820" tl="54820" type="traffic_light" />
    <node id="54821" tl="54821" type="traffic_light" />
    <node id="54826" tl="54826" type="traffic_light" />
    <node id="54827" tl="54827" type="traffic_light" />
    <node id="54828" type="unregulated" />
    <node id="54829" type="unregulated" />
    <node id="54830" type="priority_stop" />
    <node id="54831" type="priority_stop" />
    <node id="54832" tl="54832" type="traffic_light" />
    <node id="54833" tl="54833" type="traffic_light" />
    <node id="54834" type="unregulated" />
    <node id="54835" tl="54835" type="traffic_light" />
    <node id="54836" type="unregulated" />
    <node id="54837" tl="54837" type="traffic_light" />
    <node id="54838" type="unregulated" />
    <node id="54847" type="unregulated" />
    <node id="54848" tl="54848" type="traffic_light" />
    <node id="54849" tl="54849" type="traffic_light" />
    <node id="54850" type="unregulated" />
    <node id="54855" type="priority_stop" />
    <node id="54856" type="allway_stop" />
    <node id="54857" type="unregulated" />
    <node id="54858" type="unregulated" />
    <node id="54859" type="unregulated" />
    <node id="54860" type="unregulated" />
    <node id="54861" type="unregulated" />
    <node id="54862" type="unregulated" />
    <node id="54863" type="unregulated" />
    <node id="54864" tl="54864" type="traffic_light" />
    <node id="54865" type="unregulated" />
    <node id="54866" type="unregulated" />
    <node id="54867" type="unregulated" />
    <node id="54868" type="unregulated" />
    <node id="54869" type="unregulated" />
    <node id="54870" tl="54870" type="traffic_light" />
    <node id="54871" tl="54871" type="unregulated" />
    <node id="54919" tl="54919" type="traffic_light" />
    <node id="54920" tl="54920" type="traffic_light" />
    <node id="54921" tl="54921" type="traffic_light" />
    <node id="54922" tl="54922" type="traffic_light" />
    <node id="54928" type="allway_stop" />
    <node id="54929" type="allway_stop" />
    <node id="54930" tl="54930" type="traffic_light" />
    <node id="54931" tl="54931" type="traffic_light" />
    <node id="54933" type="allway_stop" />
    <node id="54938" tl="54938" type="traffic_light" />
    <node id="54939" type="allway_stop" />
    <node id="54940" tl="54940" type="traffic_light" />
    <node id="54941" tl="54941" type="traffic_light" />
    <node id="54942" tl="54942" type="traffic_light" />
    <node id="54943" type="allway_stop" />
    <node id="54944" tl="54944" type="traffic_light" />
    <node id="54945" type="unregulated" />
    <node id="54946" tl="54946" type="traffic_light" />
    <node id="54947" tl="54947" type="traffic_light" />
    <node id="54948" type="unregulated" />
    <node id="54949" type="unregulated" />
    <node id="54950" type="priority_stop" />
    <node id="54951" type="unregulated" />
    <node id="54952" tl="54952" type="traffic_light" />
    <node id="54953" type="unregulated" />
    <node id="54954" tl="54954" type="traffic_light" />
    <node id="54955" type="allway_stop" />
    <node id="54956" tl="54956" type="traffic_light" />
    <node id="54957" type="unregulated" />
    <node id="54958" tl="54958" type="traffic_light" />
    <node id="54959" type="allway_stop" />
    <node id="54960" tl="54960" type="traffic_light" />
    <node id="54961" type="unregulated" />
    <node id="54962" tl="54962" type="traffic_light" />
    <node id="54963" tl="54963" type="traffic_light" />
    <node id="54964" tl="54964" type="traffic_light" />
    <node id="54965" tl="54965" type="traffic_light" />
    <node id="54966" tl="54966" type="traffic_light" />
    <node id="54967" tl="54967" type="traffic_light" />
    <node id="54968" type="unregulated" />
    <node id="54969" tl="54969" type="traffic_light" />
    <node id="54970" tl="54970" type="traffic_light" />
    <node id="54971" type="unregulated" />
    <node id="54972" type="unregulated" />
    <node id="54973" tl="54973" type="traffic_light" />
    <node id="54974" type="unregulated" />
    <node id="54985" type="priority_stop" />
    <node id="54986" type="unregulated" />
    <node id="54987" tl="54987" type="traffic_light" />
    <node id="54988" tl="54988" type="traffic_light" />
    <node id="54989" type="allway_stop" />
    <node id="54990" type="allway_stop" />
    <node id="54993" type="unregulated" />
    <node id="54994" tl="54994" type="traffic_light" />
    <node id="54995" tl="54995" type="traffic_light" />
    <node id="54996" type="allway_stop" />
    <node id="54997" type="unregulated" />
    <node id="55004" type="priority_stop" />
    <node id="55005" type="unregulated" />
    <node id="55006" tl="55006" type="traffic_light" />
    <node id="55030" tl="55030" type="traffic_light" />
    <node id="55031" tl="55031" type="traffic_light" />
    <node id="55036" type="unregulated" />
    <node id="55045" tl="55045" type="traffic_light" />
    <node id="55046" tl="55046" type="traffic_light" />
    <node id="55051" tl="55051" type="traffic_light" />
    <node id="55052" type="unregulated" />
    <node id="55053" type="unregulated" />
    <node id="55054" tl="55054" type="traffic_light" />
    <node id="55055" type="unregulated" />
    <node id="55056" type="unregulated" />
    <node id="55057" type="unregulated" />
    <node id="55058" type="unregulated" />
    <node id="55059" type="unregulated" />
    <node id="55060" type="unregulated" />
    <node id="55061" type="unregulated" />
    <node id="55062" type="unregulated" />
    <node id="55063" type="unregulated" />
    <node id="55064" type="unregulated" />
    <node id="55065" type="unregulated" />
    <node id="55066" type="unregulated" />
    <node id="55067" type="unregulated" />
    <node id="55068" tl="55068" type="traffic_light" />
    <node id="55069" type="unregulated" />
    <node id="55070" type="unregulated" />
    <node id="55071" type="unregulated" />
    <node id="55072" type="unregulated" />
    <node id="55073" type="unregulated" />
    <node id="55074" type="unregulated" />
    <node id="55075" type="unregulated" />
    <node id="55076" type="unregulated" />
    <node id="55077" type="unregulated" />
    <node id="55078" tl="55078" type="traffic_light" />
    <node id="55079" type="unregulated" />
    <node id="55080" type="unregulated" />
    <node id="55081" type="unregulated" />
    <node id="55082" type="unregulated" />
    <node id="55083" type="unregulated" />
    <node id="55084" type="unregulated" />
    <node id="55089" tl="55089" type="traffic_light" />
    <node id="55090" type="unregulated" />
    <node id="55091" type="unregulated" />
    <node id="55092" type="unregulated" />
    <node id="55094" type="unregulated" />
    <node id="55095" tl="55095" type="traffic_light" />
    <node id="55096" type="unregulated" />
    <node id="55097" type="unregulated" />
    <node id="55098" type="unregulated" />
    <node id="55099" type="unregulated" />
    <node id="55100" type="unregulated" />
    <node id="55103" tl="55103" type="traffic_light" />
    <node id="55104" type="unregulated" />
    <node id="55109" tl="55109" type="traffic_light" />
    <node id="55110" type="unregulated" />
    <node id="55119" type="priority_stop" />
    <node id="55120" type="allway_stop" />
    <node id="55125" tl="55125" type="traffic_light" />
    <node id="55126" tl="55126" type="traffic_light" />
    <node id="55134" type="unregulated" />
    <node id="55135" type="unregulated" />
    <node id="55136" type="unregulated" />
    <node id="55137" type="unregulated" />
    <node id="55138" tl="55138" type="traffic_light" />
    <node id="55139" type="allway_stop" />
    <node id="55140" type="unregulated" />
    <node id="55141" type="unregulated" />
    <node id="55142" tl="55142" type="traffic_light" />
    <node id="55143" type="unregulated" />
    <node id="55144" type="unregulated" />
    <node id="55145" tl="55145" type="traffic_light" />
    <node id="55146" type="unregulated" />
    <node id="55147" type="unregulated" />
    <node id="55148" type="unregulated" />
    <node id="55149" type="unregulated" />
    <node id="55177" type="unregulated" />
    <node id="55178" type="unregulated" />
    <node id="55181" type="unregulated" />
    <node id="55182" type="unregulated" />
    <node id="55183" type="unregulated" />
    <node id="55184" type="unregulated" />
    <node id="55197" type="unregulated" />
    <node id="55198" type="unregulated" />
    <node id="55222" tl="55222" type="traffic_light" />
    <node id="55223" tl="55223" type="traffic_light" />
    <node id="55224" type="allway_stop" />
    <node id="55225" type="priority_stop" />
    <node id="55234" tl="55234" type="traffic_light" />
    <node id="55235" tl="55235" type="traffic_light" />
    <node id="55236" tl="55236" type="traffic_light" />
    <node id="55237" type="allway_stop" />
    <node id="55238" type="unregulated" />
    <node id="55239" type="priority_stop" />
    <node id="55240" tl="55240" type="traffic_light" />
    <node id="55241" tl="55241" type="traffic_light" />
    <node id="55244" tl="55244" type="traffic_light" />
    <node id="55245" tl="55245" type="traffic_light" />
    <node id="55246" tl="55246" type="traffic_light" />
    <node id="55247" tl="55247" type="traffic_light" />
    <node id="55290" tl="55290" type="traffic_light" />
    <node id="55291" tl="55291" type="traffic_light" />
    <node id="55312" tl="55312" type="traffic_light" />
    <node id="55313" tl="55313" type="traffic_light" />
    <node id="55341" tl="55341" type="traffic_light" />
    <node id="55342" type="unregulated" />
    <node id="55343" type="unregulated" />
    <node id="55344" type="unregulated" />
    <node id="55345" type="unregulated" />
    <node id="55346" type="unregulated" />
    <node id="55394" type="unregulated" />
    <node id="55395" tl="55395" type="traffic_light" />
    <node id="55403" type="allway_stop" />
    <node id="55404" type="unregulated" />
    <node id="55411" tl="55411" type="traffic_light" />
    <node id="55412" tl="55412" type="traffic_light" />
    <node id="55418" tl="55418" type="traffic_light" />
    <node id="55419" type="unregulated" />
    <node id="55420" tl="55420" type="traffic_light" />
    <node id="55421" type="unregulated" />
    <node id="55422" type="unregulated" />
    <node id="55423" type="unregulated" />
    <node id="55424" type="unregulated" />
    <node id="55425" type="unregulated" />
    <node id="55426" tl="55426" type="traffic_light" />
    <node id="55427" tl="55427" type="traffic_light" />
    <node id="55443" type="unregulated" />
    <node id="55470" type="unregulated" />
    <node id="55472" tl="55472" type="unregulated" />
    <node id="55473" type="unregulated" />
    <node id="59798" tl="59798" type="traffic_light" />
    <node id="59799" type="unregulated" />
    <node id="59835" type="priority_stop" />
    <node id="59836" type="priority_stop" />
    <node id="59846" tl="59846" type="traffic_light" />
    <node id="59849" type="unregulated" />
    <node id="59850" type="priority_stop" />
    <node id="59851" type="unregulated" />
    <node id="59852" type="unregulated" />
    <node id="59853" type="unregulated" />
    <node id="59854" type="unregulated" />
    <node id="59855" type="unregulated" />
    <node id="59869" type="unregulated" />
    <node id="59876" type="unregulated" />
    <node id="59881" type="unregulated" />
    <node id="59882" type="unregulated" />
    <node id="59897" type="unregulated" />
    <node id="59898" type="unregulated" />
    <node id="60006" tl="60006" type="traffic_light" />
    <node id="60007" tl="60007" type="traffic_light" />
    <node id="60045" type="unregulated" />
    <node id="60046" type="unregulated" />
    <node id="60047" type="unregulated" />
    <node id="60048" tl="60048" type="traffic_light" />
    <node id="60049" type="unregulated" />
    <node id="60050" type="unregulated" />
    <node id="60051" type="unregulated" />
    <node id="60052" type="unregulated" />
    <node id="60053" type="unregulated" />
    <node id="60054" type="priority" />
    <node id="60055" type="unregulated" />
    <node id="60056" type="unregulated" />
    <node id="60059" type="unregulated" />
    <node id="60060" type="unregulated" />
    <node id="60087" tl="60087" type="traffic_light" />
    <node id="60093" tl="60093" type="traffic_light" />
    <node id="60094" tl="60094" type="traffic_light" />
    <node id="60099" type="unregulated" />
    <node id="60100" type="unregulated" />
    <node id="60101" type="unregulated" />
    <node id="60102" type="priority" />
    <node id="60104" type="unregulated" />
    <node id="60105" type="priority" />
    <node id="60130" tl="60130" type="traffic_light" />
    <node id="60131" tl="60131" type="traffic_light" />
    <node id="60132" tl="60132" type="traffic_light" />
    <node id="60133" tl="60133" type="traffic_light" />
    <node id="60134" type="unregulated" />
    <node id="60135" type="unregulated" />
    <node id="60136" type="unregulated" />
    <node id="60137" tl="60137" type="traffic_light" />
    <node id="60138" tl="60138" type="traffic_light" />
    <node id="60139" type="unregulated" />
    <node id="60140" type="unregulated" />
    <node id="60184" type="unregulated" />
    <node id="60185" tl="60185" type="traffic_light" />
    <node id="60186" tl="60186" type="traffic_light" />
    <node id="60187" tl="60187" type="traffic_light" />
    <node id="60189" tl="60189" type="traffic_light" />
    <node id="60190" tl="60190" type="traffic_light" />
    <node id="60194" tl="60194" type="traffic_light" />
    <node id="60195" type="priority_stop" />
    <node id="60198" type="unregulated" />
    <node id="60199" type="unregulated" />
    <node id="60200" type="unregulated" />
    <node id="60201" type="unregulated" />
    <node id="60202" type="traffic_light" />
    <node id="60203" type="unregulated" />
    <node id="60204" type="unregulated" />
    <node id="60205" type="unregulated" />
    <node id="60206" type="unregulated" />
    <node id="60207" type="unregulated" />
    <node id="60208" type="unregulated" />
    <node id="60209" type="unregulated" />
    <node id="60210" type="unregulated" />
    <node id="60211" type="traffic_light" />
    <node id="60212" tl="60212" type="traffic_light" />
    <node id="60213" type="unregulated" />
    <node id="60214" type="unregulated" />
    <node id="60215" type="unregulated" />
    <node id="60216" type="unregulated" />
    <node id="60217" tl="60217" type="traffic_light" />
    <node id="60218" type="unregulated" />
    <node id="60222" tl="60222" type="traffic_light" />
    <node id="60223" tl="60223" type="traffic_light" />
    <node id="60224" tl="60224" type="traffic_light" />
    <node id="60225" tl="60225" type="traffic_light" />
    <node id="60226" tl="60226" type="traffic_light" />
    <node id="60227" type="unregulated" />
    <node id="60228" tl="60228" type="traffic_light" />
    <node id="60229" tl="60229" type="traffic_light" />
    <node id="60230" tl="60230" type="traffic_light" />
    <node id="60231" type="unregulated" />
    <node id="60232" type="priority" />
    <node id="60233" tl="60233" type="traffic_light" />
    <node id="60234" type="unregulated" />
    <node id="60235" type="unregulated" />
    <node id="60238" type="unregulated" />
    <node id="60250" tl="60250" type="traffic_light" />
    <node id="60251" type="unregulated" />
    <node id="60252" type="unregulated" />
    <node id="60253" tl="60253" type="traffic_light" />
    <node id="60254" type="unregulated" />
    <node id="60255" type="unregulated" />
    <node id="60256" type="unregulated" />
    <node id="60257" type="unregulated" />
    <node id="60258" tl="60258" type="traffic_light" />
    <node id="60259" type="unregulated" />
    <node id="60260" type="unregulated" />
    <node id="60261" type="unregulated" />
    <node id="60262" type="unregulated" />
    <node id="60263" type="unregulated" />
    <node id="60264" type="unregulated" />
    <node id="60390" type="unregulated" />
    <node id="60398" type="unregulated" />
    <node id="60399" type="unregulated" />
    <node id="60412" type="priority_stop" />
    <node id="60413" tl="60413" type="allway_stop" />
    <node id="60414" tl="60414" type="traffic_light" />
    <node id="60415" type="allway_stop" />
    <node id="60418" tl="60418" type="traffic_light" />
    <node id="60419" type="priority_stop" />
    <node id="60420" type="unregulated" />
    <node id="60421" tl="60421" type="traffic_light" />
    <node id="60422" type="unregulated" />
    <node id="60423" type="unregulated" />
    <node id="60424" type="unregulated" />
    <node id="60426" type="unregulated" />
    <node id="60427" type="unregulated" />
    <node id="60428" type="unregulated" />
    <node id="60429" type="unregulated" />
    <node id="60430" type="unregulated" />
    <node id="60431" type="unregulated" />
    <node id="60432" type="unregulated" />
    <node id="60433" type="unregulated" />
    <node id="60434" tl="60434" type="traffic_light" />
    <node id="60447" type="priority_stop" />
    <node id="60448" type="unregulated" />
    <node id="60449" tl="60449" type="traffic_light" />
    <node id="60450" type="unregulated" />
    <node id="60451" tl="60451" type="traffic_light" />
    <node id="60452" type="allway_stop" />
    <node id="60454" type="priority_stop" />
    <node id="60457" tl="60457" type="traffic_light" />
    <node id="60458" type="unregulated" />
    <node id="60459" type="unregulated" />
    <node id="60460" type="unregulated" />
    <node id="60461" type="unregulated" />
    <node id="60462" type="unregulated" />
    <node id="60463" type="unregulated" />
    <node id="60464" type="unregulated" />
    <node id="60465" tl="60465" type="traffic_light" />
    <node id="60466" type="unregulated" />
    <node id="60469" type="unregulated" />
    <node id="60470" type="unregulated" />
    <node id="60471" type="unregulated" />
    <node id="60474" type="unregulated" />
    <node id="60475" type="unregulated" />
    <node id="60476" type="unregulated" />
    <node id="60477" tl="60477" type="traffic_light" />
    <node id="60478" tl="60478" type="traffic_light" />
    <node id="60479" type="unregulated" />
    <node id="60480" type="unregulated" />
    <node id="60481" type="unregulated" />
    <node id="60482" type="unregulated" />
    <node id="60483" type="unregulated" />
    <node id="60484" tl="60484" type="traffic_light" />
    <node id="60533" type="unregulated" />
    <node id="60534" tl="60534" type="traffic_light" />
    <node id="60535" type="priority_stop" />
    <node id="60539" tl="60539" type="traffic_light" />
    <node id="60540" type="allway_stop" />
    <node id="60547" type="unregulated" />
    <node id="60548" tl="60548" type="traffic_light" />
    <node id="60549" type="priority_stop" />
    <node id="60550" tl="60550" type="traffic_light" />
    <node id="60551" type="unregulated" />
    <node id="60552" tl="60552" type="traffic_light" />
    <node id="60565" tl="60565" type="traffic_light" />
    <node id="60566" type="unregulated" />
    <node id="60598" type="priority_stop" />
    <node id="60599" type="priority_stop" />
    <node id="60600" type="allway_stop" />
    <node id="60603" type="allway_stop" />
    <node id="60604" type="allway_stop" />
    <node id="60605" type="unregulated" />
    <node id="60609" tl="60609" type="traffic_light" />
    <node id="60610" type="unregulated" />
    <node id="60611" tl="60611" type="traffic_light" />
    <node id="60612" type="allway_stop" />
    <node id="60613" type="unregulated" />
    <node id="60614" type="priority_stop" />
    <node id="60615" tl="60615" type="traffic_light" />
    <node id="60616" tl="60616" type="traffic_light" />
    <node id="60617" type="unregulated" />
    <node id="60618" type="priority_stop" />
    <node id="60619" type="allway_stop" />
    <node id="60620" tl="60620" type="traffic_light" />
    <node id="60621" tl="60621" type="traffic_light" />
    <node id="60622" tl="60622" type="traffic_light" />
    <node id="60623" type="allway_stop" />
    <node id="60624" type="allway_stop" />
    <node id="60625" tl="60625" type="traffic_light" />
    <node id="60626" type="unregulated" />
    <node id="60627" tl="60627" type="traffic_light" />
    <node id="60628" type="unregulated" />
    <node id="60629" tl="60629" type="traffic_light" />
    <node id="60630" type="unregulated" />
    <node id="60631" type="unregulated" />
    <node id="60632" type="allway_stop" />
    <node id="60633" tl="60633" type="traffic_light" />
    <node id="60634" tl="60634" type="traffic_light" />
    <node id="60635" type="unregulated" />
    <node id="60636" tl="60636" type="traffic_light" />
    <node id="60637" type="priority" />
    <node id="60638" type="unregulated" />
    <node id="60639" type="unregulated" />
    <node id="60640" type="unregulated" />
    <node id="60641" type="unregulated" />
    <node id="60642" type="unregulated" />
    <node id="60643" type="unregulated" />
    <node id="60644" type="unregulated" />
    <node id="60645" type="unregulated" />
    <node id="60646" type="unregulated" />
    <node id="60647" type="unregulated" />
    <node id="60648" type="unregulated" />
    <node id="60650" tl="60650" type="traffic_light" />
    <node id="60651" tl="60651" type="traffic_light" />
    <node id="60652" type="priority" />
    <node id="60653" type="unregulated" />
    <node id="60654" type="priority" />
    <node id="60655" tl="60655" type="traffic_light" />
    <node id="60656" tl="60656" type="traffic_light" />
    <node id="60657" type="unregulated" />
    <node id="60658" type="unregulated" />
    <node id="60659" type="unregulated" />
    <node id="60660" type="unregulated" />
    <node id="60661" type="allway_stop" />
    <node id="60662" type="unregulated" />
    <node id="60663" type="unregulated" />
    <node id="60664" type="unregulated" />
    <node id="60665" tl="60665" type="traffic_light" />
    <node id="60666" tl="60666" type="traffic_light" />
    <node id="60667" tl="60667" type="traffic_light" />
    <node id="60668" tl="60668" type="traffic_light" />
    <node id="60669" tl="60669" type="traffic_light" />
    <node id="60670" tl="60670" type="traffic_light" />
    <node id="60671" type="allway_stop" />
    <node id="60672" tl="60672" type="traffic_light" />
    <node id="60673" type="unregulated" />
    <node id="60674" type="unregulated" />
    <node id="60675" type="unregulated" />
    <node id="60676" type="priority" />
    <node id="60677" type="unregulated" />
    <node id="60678" type="unregulated" />
    <node id="60679" type="unregulated" />
    <node id="60680" type="unregulated" />
    <node id="60681" type="unregulated" />
    <node id="60682" type="unregulated" />
    <node id="60683" type="unregulated" />
    <node id="60684" type="unregulated" />
    <node id="60685" type="unregulated" />
    <node id="60686" type="unregulated" />
    <node id="60687" type="unregulated" />
    <node id="60688" tl="60688" type="traffic_light" />
    <node id="60689" type="unregulated" />
    <node id="60690" tl="60690" type="traffic_light" />
    <node id="60691" type="unregulated" />
    <node id="60692" type="unregulated" />
    <node id="60693" type="priority" />
    <node id="60694" type="unregulated" />
    <node id="60695" type="unregulated" />
    <node id="60696" type="unregulated" />
    <node id="60697" type="unregulated" />
    <node id="60698" type="unregulated" />
    <node id="60699" type="unregulated" />
    <node id="60700" type="unregulated" />
    <node id="60701" type="unregulated" />
    <node id="60702" type="unregulated" />
    <node id="60703" type="unregulated" />
    <node id="60704" tl="60704" type="traffic_light" />
    <node id="60705" type="unregulated" />
    <node id="60706" type="unregulated" />
    <node id="60707" type="unregulated" />
    <node id="60708" type="unregulated" />
    <node id="60709" type="unregulated" />
    <node id="60710" type="unregulated" />
    <node id="60711" type="unregulated" />
    <node id="60712" type="unregulated" />
    <node id="60713" tl="60713" type="unregulated" />
    <node id="60714" type="unregulated" />
    <node id="60715" type="unregulated" />
    <node id="60716" tl="60716" type="traffic_light" />
    <node id="60717" tl="60717" type="traffic_light" />
    <node id="60718" tl="60718" type="traffic_light" />
    <node id="60719" tl="60719" type="traffic_light" />
    <node id="60720" tl="60720" type="traffic_light" />
    <node id="60722" tl="60722" type="traffic_light" />
    <node id="60725" type="unregulated" />
    <node id="60726" tl="60726" type="traffic_light" />
    <node id="60728" tl="60728" type="traffic_light" />
    <node id="60729" type="unregulated" />
    <node id="60730" tl="60730" type="traffic_light" />
    <node id="60731" tl="60731" type="traffic_light" />
    <node id="60732" tl="60732" type="traffic_light" />
    <node id="60733" type="unregulated" />
    <node id="60734" type="priority_stop" />
    <node id="60735" type="unregulated" />
    <node id="60736" tl="60736" type="traffic_light" />
    <node id="60737" tl="60737" type="traffic_light" />
    <node id="60738" tl="60738" type="traffic_light" />
    <node id="60739" tl="60739" type="traffic_light" />
    <node id="60741" type="priority_stop" />
    <node id="60744" tl="60744" type="traffic_light" />
    <node id="60745" type="unregulated" />
    <node id="60746" tl="60746" type="traffic_light" />
    <node id="60747" type="priority_stop" />
    <node id="60748" tl="60748" type="traffic_light" />
    <node id="60749" type="unregulated" />
    <node id="60750" tl="60750" type="traffic_light" />
    <node id="60751" tl="60751" type="traffic_light" />
    <node id="60754" tl="60754" type="traffic_light" />
    <node id="60755" type="allway_stop" />
    <node id="60756" type="unregulated" />
    <node id="60759" tl="60759" type="traffic_light" />
    <node id="60760" type="unregulated" />
    <node id="60762" type="unregulated" />
    <node id="60773" type="unregulated" />
    <node id="60774" type="unregulated" />
    <node id="60775" type="unregulated" />
    <node id="60778" type="unregulated" />
    <node id="60779" type="unregulated" />
    <node id="60780" type="unregulated" />
    <node id="60781" type="unregulated" />
    <node id="60782" type="unregulated" />
    <node id="60783" type="unregulated" />
    <node id="60784" type="unregulated" />
    <node id="60785" type="priority" />
    <node id="60786" tl="60786" type="traffic_light" />
    <node id="60787" type="unregulated" />
    <node id="60788" type="unregulated" />
    <node id="60789" tl="60789" type="traffic_light" />
    <node id="60790" type="unregulated" />
    <node id="60791" type="unregulated" />
    <node id="60792" type="unregulated" />
    <node id="60794" type="unregulated" />
    <node id="60802" tl="60802" type="traffic_light" />
    <node id="60803" tl="60803" type="traffic_light" />
    <node id="60804" type="allway_stop" />
    <node id="60918" tl="60918" type="traffic_light" />
    <node id="60928" tl="60928" type="traffic_light" />
    <node id="60929" tl="60929" type="traffic_light" />
    <node id="60930" tl="60930" type="traffic_light" />
    <node id="60932" type="unregulated" />
    <node id="60934" type="allway_stop" />
    <node id="60937" type="priority_stop" />
    <node id="60938" type="priority_stop" />
    <node id="60939" tl="60939" type="traffic_light" />
    <node id="60944" type="unregulated" />
    <node id="60945" type="allway_stop" />
    <node id="60946" type="priority_stop" />
    <node id="60951" type="priority_stop" />
    <node id="60952" type="unregulated" />
    <node id="60960" type="unregulated" />
    <node id="61008" tl="61008" type="traffic_light" />
    <node id="61009" tl="61009" type="traffic_light" />
    <node id="61010" type="unregulated" />
    <node id="61011" type="allway_stop" />
    <node id="61012" type="unregulated" />
    <node id="61013" type="unregulated" />
    <node id="61016" tl="61016" type="traffic_light" />
    <node id="61017" type="unregulated" />
    <node id="61018" tl="61018" type="traffic_light" />
    <node id="61019" tl="61019" type="traffic_light" />
    <node id="61020" tl="61020" type="traffic_light" />
    <node id="61025" tl="61025" type="traffic_light" />
    <node id="61026" type="allway_stop" />
    <node id="61031" type="unregulated" />
    <node id="61032" type="unregulated" />
    <node id="61033" type="unregulated" />
    <node id="61034" type="unregulated" />
    <node id="61035" type="priority" />
    <node id="61036" type="traffic_light" />
    <node id="61037" type="unregulated" />
    <node id="61038" type="unregulated" />
    <node id="61039" type="allway_stop" />
    <node id="61040" type="unregulated" />
    <node id="61041" type="unregulated" />
    <node id="61042" type="priority_stop" />
    <node id="61043" type="unregulated" />
    <node id="61044" tl="61044" type="traffic_light" />
    <node id="61045" tl="61045" type="traffic_light" />
    <node id="61046" type="unregulated" />