<?xml version="1.0" encoding="UTF-8"?>

<!-- generated on Tue Feb 12 11:21:17 2019 by Eclipse SUMO netconvert Version v1_1_0+0090-23cbd8772d
<configuration xmlns:xsi="http://www.w3.org/2001/XMLSchema-instance" xsi:noNamespaceSchemaLocation="http://sumo.dlr.de/xsd/netconvertConfiguration.xsd">

    <input>
        <sumo-net-file value="net.net.xml"/>
    </input>

    <output>
        <plain-output-prefix value="dfw"/>
    </output>

    <projection>
        <proj.plain-geo value="true"/>
    </projection>

    <processing>
        <geometry.max-grade.fix value="false"/>
        <offset.disable-normalization value="true"/>
        <lefthand value="false"/>
    </processing>

    <junctions>
        <no-turnarounds value="true"/>
        <junctions.corner-detail value="5"/>
        <junctions.limit-turn-speed value="5.5"/>
        <rectangular-lane-cut value="false"/>
    </junctions>

    <pedestrian>
        <walkingareas value="false"/>
    </pedestrian>

</configuration>
-->

<edges version="1.1" xmlns:xsi="http://www.w3.org/2001/XMLSchema-instance" xsi:noNamespaceSchemaLocation="http://sumo.dlr.de/xsd/edges_file.xsd">
    <edge id="-101172" from="66880" to="66517" priority="0" numLanes="2" speed="17.88" shape="-96.893694,32.832137 -96.893738,32.832135 -96.893786,32.832142 -96.893866,32.832164 -96.894399,32.832313 -96.895462,32.832639 -96.896108,32.832814 -96.896608,32.832960 -96.896942,32.833167"/>
    <edge id="-101203" from="66935" to="66940" priority="0" numLanes="2" speed="13.41"/>
    <edge id="-101248" from="66880" to="66467" priority="0" numLanes="2" speed="13.41" shape="-96.893694,32.832137 -96.893656,32.832143 -96.893610,32.832153 -96.893555,32.832171 -96.893496,32.832200 -96.893442,32.832238 -96.893399,32.832276 -96.893344,32.832340 -96.893252,32.832442 -96.893194,32.832514 -96.893158,32.832572 -96.893122,32.832630 -96.893091,32.832706 -96.893080,32.832783 -96.893091,32.832838 -96.893103,32.832881 -96.893142,32.832947 -96.893213,32.833024 -96.893326,32.833139"/>
    <edge id="-101412" from="66418" to="66351" priority="0" numLanes="2" speed="15.65" shape="-96.967387,32.899448 -96.967660,32.899751 -96.967833,32.899947 -96.968042,32.900192 -96.968200,32.900310 -96.968425,32.900429 -96.968606,32.900461 -96.968674,32.900472 -96.968899,32.900477 -96.969108,32.900424 -96.969300,32.900339 -96.969509,32.900211 -96.969689,32.900093 -96.970028,32.899865"/>
    <edge id="-101424" from="67421" to="67419" priority="0" numLanes="2" speed="13.41" shape="-96.974586,32.917752 -96.974812,32.917738 -96.974905,32.917751 -96.975031,32.917797 -96.975181,32.917945 -96.975272,32.918092 -96.975328,32.918340 -96.975271,32.918530"/>
    <edge id="-101425" from="67401" to="67418" priority="0" numLanes="2" speed="13.41" shape="-96.976061,32.920003 -96.975954,32.920235 -96.975686,32.920502 -96.975558,32.920569 -96.975390,32.920624 -96.975193,32.920658 -96.975007,32.920658 -96.974609,32.920656"/>
    <edge id="-101477" from="67429" to="67450" priority="0" numLanes="4" speed="17.88" shape="-96.945198,32.909859 -96.945191,32.910564 -96.945181,32.910735 -96.945159,32.911040"/>
    <edge id="-101487" from="67486" to="67428" priority="0" numLanes="6" speed="17.88" shape="-96.941157,32.911419 -96.941023,32.911488 -96.940806,32.911620 -96.940661,32.911719 -96.940098,32.912114 -96.939525,32.912503"/>
    <edge id="-101498" from="67427" to="67489" priority="0" numLanes="2" speed="17.88" shape="-96.934876,32.915820 -96.935057,32.915915 -96.935218,32.916029 -96.935360,32.916160 -96.935482,32.916310 -96.935584,32.916478 -96.935667,32.916663 -96.935731,32.916867 -96.935774,32.917089 -96.935799,32.917329 -96.935803,32.917588 -96.935788,32.917864 -96.935754,32.918158 -96.935700,32.918471 -96.935690,32.918679 -96.935655,32.918859"/>
    <edge id="-104833" from="66467" to="66498" priority="0" numLanes="2" speed="17.88" shape="-96.893326,32.833139 -96.893967,32.833797 -96.894173,32.833927 -96.894355,32.833951 -96.894609,32.833909"/>
    <edge id="-106351" from="60640" to="55182" priority="0" numLanes="2" speed="6.71" shape="-97.039759,32.904805 -97.039891,32.904803 -97.040476,32.904796"/>
    <edge id="-106443" from="62508" to="62504" priority="0" numLanes="4" speed="17.88" shape="-97.027745,33.000122 -97.029691,33.000122 -97.029885,33.000109 -97.030100,33.000062 -97.030777,32.999882 -97.032418,32.999344 -97.032772,32.999247 -97.033073,32.999182 -97.033444,32.999168 -97.036720,32.999169"/>
    <edge id="-106445" from="55004" to="63399" priority="0" numLanes="4" speed="17.88" shape="-97.104542,33.031022 -97.105090,33.032030 -97.105163,33.033933 -97.105127,33.036048"/>
    <edge id="-106700" from="61470" to="61277" priority="0" numLanes="2" speed="15.65" shape="-97.178323,32.981030 -97.178553,32.981134 -97.178844,32.981244 -97.179187,32.981517 -97.179340,32.981667 -97.179444,32.981797 -97.179633,32.982072 -97.179866,32.982310 -97.180025,32.982439 -97.180592,32.982851 -97.180787,32.983011 -97.180981,32.983202 -97.181068,32.983303 -97.181248,32.983559 -97.181355,32.983739 -97.181449,32.983978 -97.181523,32.984304 -97.181616,32.984720 -97.181682,32.984931 -97.181718,32.985027 -97.181784,32.985132 -97.181927,32.985333 -97.182113,32.985534 -97.182382,32.985768 -97.182783,32.986010 -97.183164,32.986273"/>
    <edge id="-106702" from="61279" to="61278" priority="0" numLanes="4" speed="13.41" shape="-97.185545,32.978117 -97.186517,32.978230 -97.187396,32.978708 -97.187930,32.979006 -97.188468,32.979216 -97.188805,32.979321 -97.189196,32.979365 -97.190100,32.979350 -97.191520,32.979380 -97.192123,32.979380 -97.192886,32.979380 -97.193649,32.979484 -97.193883,32.979460"/>
    <edge id="-106795" from="62504" to="62546" priority="0" numLanes="4" speed="17.88" shape="-97.036720,32.999169 -97.036600,33.006317 -97.036600,33.008736 -97.036640,33.009941"/>
    <edge id="-106893" from="60615" to="60611" priority="0" numLanes="6" speed="22.35" shape="-97.193571,32.904023 -97.194628,32.904025 -97.195786,32.903981 -97.196047,32.903959 -97.197136,32.903776 -97.197606,32.903762 -97.199970,32.903768 -97.201512,32.903776 -97.202839,32.903737 -97.202957,32.903726 -97.203067,32.903711 -97.203254,32.903681 -97.203627,32.903607 -97.204124,32.903495 -97.204213,32.903469 -97.204404,32.903406 -97.204731,32.903271 -97.206884,32.902275 -97.207129,32.902164 -97.207338,32.902070 -97.207969,32.901785 -97.208093,32.901729 -97.208345,32.901615 -97.208528,32.901530 -97.209402,32.901135 -97.210045,32.900844 -97.210348,32.900714 -97.210545,32.900640 -97.210752,32.900571 -97.210912,32.900517 -97.211128,32.900456 -97.211351,32.900409 -97.211951,32.900304 -97.212123,32.900284 -97.212272,32.900279 -97.212462,32.900274 -97.214217,32.900291"/>
    <edge id="-106916" from="61797" to="61655" priority="0" numLanes="2" speed="13.41" shape="-97.086278,32.859095 -97.088164,32.859113 -97.089636,32.859124 -97.090308,32.859125"/>
    <edge id="-106917" from="61647" to="61797" priority="0" numLanes="2" speed="13.41" shape="-97.082458,32.859027 -97.084038,32.859093 -97.086278,32.859095"/>
    <edge id="-106924" from="60651" to="60650" priority="0" numLanes="6" speed="20.12" shape="-97.126200,32.914923 -97.125979,32.915057 -97.124952,32.915677 -97.120510,32.918359 -97.120206,32.918542 -97.119638,32.918884 -97.119074,32.919220"/>
    <edge id="-106925" from="60650" to="62209" priority="0" numLanes="6" speed="20.12" shape="-97.119074,32.919220 -97.117002,32.920472 -97.115200,32.921547 -97.113810,32.922377 -97.109787,32.924779 -97.108992,32.925253 -97.106691,32.926316"/>
    <edge id="-106947" from="61453" to="61407" priority="0" numLanes="2" speed="17.88" shape="-97.151014,32.952428 -97.151000,32.953597 -97.150976,32.955637 -97.150972,32.956214"/>
    <edge id="-106979" from="60229" to="60226" priority="0" numLanes="5" speed="15.65"/>
    <edge id="-107051" from="60138" to="60140" priority="0" numLanes="6" speed="15.65" shape="-97.097070,32.763357 -97.097103,32.764286 -97.097115,32.764547"/>
    <edge id="-107198" from="66827" to="66847" priority="0" numLanes="6" speed="13.41" shape="-96.943425,32.872826 -96.943785,32.873985 -96.943750,32.874622 -96.943581,32.875378 -96.943308,32.875940 -96.942624,32.877191"/>
    <edge id="-107199" from="66866" to="66847" priority="0" numLanes="4" speed="15.65" shape="-96.935643,32.874113 -96.936318,32.874122 -96.936881,32.874281 -96.937537,32.874696 -96.938659,32.875280 -96.939518,32.875789 -96.940485,32.876279 -96.941180,32.876542 -96.942624,32.877191"/>
    <edge id="-107282" from="61596" to="61601" priority="0" numLanes="4" speed="15.65" shape="-97.097135,32.775343 -97.097102,32.776359 -97.097104,32.777365 -97.097079,32.777699 -97.096999,32.778254 -97.096889,32.778728 -97.096702,32.779365 -97.096628,32.779617 -97.096516,32.779995"/>
    <edge id="-107807" from="66839" to="66838" priority="0" numLanes="6" speed="15.65" shape="-96.941256,32.879366 -96.940772,32.880333 -96.940220,32.882196 -96.940278,32.883460 -96.940681,32.886031"/>
    <edge id="-107808" from="66546" to="66866" priority="0" numLanes="4" speed="15.65" shape="-96.934914,32.870345 -96.935219,32.872000 -96.935643,32.874113"/>
    <edge id="-107809" from="66493" to="66865" priority="0" numLanes="4" speed="24.59" shape="-96.932893,32.874212 -96.933122,32.874292 -96.933613,32.874542 -96.935176,32.875456 -96.935449,32.875619"/>
    <edge id="-107810" from="66842" to="66839" priority="0" numLanes="6" speed="15.65"/>
    <edge id="-107812" from="66847" to="66842" priority="0" numLanes="6" speed="15.65" shape="-96.942624,32.877191 -96.941703,32.878475 -96.941577,32.878726"/>
    <edge id="-107819" from="61219" to="61231" priority="0" numLanes="2" speed="13.41" shape="-97.153837,32.883405 -97.154061,32.883479 -97.154236,32.883630 -97.154360,32.883840 -97.154400,32.884025 -97.154382,32.885090"/>
    <edge id="-107820" from="61219" to="61232" priority="0" numLanes="4" speed="20.12" shape="-97.153837,32.883405 -97.153447,32.884018 -97.153046,32.884627"/>
    <edge id="-107825" from="66527" to="66547" priority="0" numLanes="6" speed="13.41" shape="-96.928458,32.861234 -96.928559,32.861219 -96.928869,32.861190 -96.929085,32.861199 -96.929724,32.861267 -96.929849,32.861272 -96.930017,32.861279 -96.930205,32.861289 -96.930349,32.861288 -96.930459,32.861284 -96.930676,32.861260 -96.931200,32.861162"/>
    <edge id="-107826" from="66528" to="66527" priority="0" numLanes="4" speed="13.41" shape="-96.925778,32.862222 -96.926487,32.862183 -96.926788,32.862140 -96.927142,32.862028 -96.927712,32.861695 -96.928458,32.861234"/>
    <edge id="-107827" from="66684" to="66546" priority="0" numLanes="6" speed="15.65" shape="-96.933630,32.868533 -96.934586,32.869455 -96.934715,32.869729 -96.934829,32.870034 -96.934914,32.870345"/>
    <edge id="-107828" from="66460" to="66528" priority="0" numLanes="4" speed="13.41" shape="-96.928549,32.866237 -96.928240,32.865908 -96.927313,32.864958 -96.927036,32.864514 -96.926777,32.864111 -96.926145,32.863023 -96.925968,32.862759 -96.925809,32.862401 -96.925778,32.862222"/>
    <edge id="-107829" from="66528" to="66463" priority="0" numLanes="4" speed="13.41" shape="-96.925778,32.862222 -96.925747,32.862039 -96.925760,32.861670 -96.925788,32.861471 -96.925816,32.861317 -96.925884,32.861141 -96.925930,32.861017 -96.926020,32.860876 -96.926157,32.860679 -96.926378,32.860451 -96.926434,32.860408 -96.927458,32.859933"/>
    <edge id="-107877" from="62347" to="62346" priority="0" numLanes="4" speed="20.12" shape="-97.023371,32.921554 -97.023929,32.921999 -97.026534,32.924096 -97.026904,32.924349 -97.027253,32.924542 -97.027666,32.924736 -97.028037,32.924876 -97.028449,32.925012 -97.028858,32.925129"/>
    <edge id="-107878" from="62471" to="62347" priority="0" numLanes="4" speed="20.12" shape="-97.021469,32.919971 -97.022514,32.920830 -97.022834,32.921101 -97.023371,32.921554"/>
    <edge id="-107879" from="62346" to="62393" priority="0" numLanes="4" speed="20.12" shape="-97.028858,32.925129 -97.029384,32.925258 -97.029963,32.925384 -97.030719,32.925515 -97.031319,32.925601 -97.031985,32.925710 -97.032631,32.925756 -97.032654,32.925758 -97.032954,32.925768 -97.033356,32.925794 -97.034012,32.925826 -97.034500,32.925886 -97.034776,32.925958 -97.035337,32.926093 -97.035864,32.926201 -97.036137,32.926244 -97.036479,32.926263"/>
    <edge id="-107880" from="62393" to="62401" priority="0" numLanes="4" speed="20.12" shape="-97.036479,32.926263 -97.037720,32.926288 -97.039204,32.926296"/>
    <edge id="-107881" from="62401" to="62381" priority="0" numLanes="4" speed="20.12"/>
    <edge id="-107882" from="62381" to="62122" priority="0" numLanes="4" speed="20.12"/>
    <edge id="-107883" from="62122" to="62121" priority="0" numLanes="4" speed="17.88" shape="-97.044116,32.926231 -97.045009,32.926183 -97.046753,32.926153 -97.047560,32.926094 -97.048331,32.925974 -97.049221,32.925745 -97.051428,32.925138 -97.053302,32.924610 -97.055426,32.923992 -97.056292,32.923723 -97.056873,32.923365 -97.057312,32.922976 -97.057787,32.922279 -97.057901,32.921931 -97.058004,32.921828 -97.058106,32.921691 -97.058307,32.921340 -97.058552,32.920952 -97.058711,32.920685 -97.058915,32.920407 -97.059140,32.920109 -97.059303,32.919953 -97.059542,32.919715 -97.059782,32.919512"/>
    <edge id="-107884" from="62207" to="60650" priority="0" numLanes="4" speed="15.65" shape="-97.117475,32.918901 -97.118177,32.918895 -97.118632,32.918891 -97.118740,32.918902 -97.118792,32.918919 -97.118840,32.918947 -97.119074,32.919220"/>
    <edge id="-107885" from="62194" to="62207" priority="0" numLanes="4" speed="15.65" shape="-97.103342,32.920172 -97.105575,32.919947 -97.106061,32.919946 -97.106272,32.919946 -97.106933,32.919956 -97.107033,32.919959 -97.107444,32.920001 -97.107615,32.920007 -97.107791,32.920015 -97.108518,32.920018 -97.109402,32.920018 -97.109771,32.920018 -97.110185,32.920024 -97.110455,32.920028 -97.110748,32.920018 -97.111029,32.920008 -97.111219,32.920001 -97.111719,32.919963 -97.112392,32.919827 -97.114081,32.919349 -97.114650,32.919209 -97.115743,32.918940 -97.115961,32.918898 -97.116051,32.918888 -97.116241,32.918878 -97.116802,32.918905 -97.117475,32.918901"/>
    <edge id="-107886" from="62259" to="62258" priority="0" numLanes="4" speed="20.12" shape="-97.067580,32.917654 -97.067578,32.916591 -97.067578,32.916336 -97.067578,32.915452 -97.067578,32.915176 -97.067579,32.914875 -97.067566,32.913580 -97.067571,32.912686"/>
    <edge id="-107887" from="62258" to="62260" priority="0" numLanes="2" speed="17.88" shape="-97.067571,32.912686 -97.067756,32.912676 -97.069679,32.912682 -97.070272,32.912693 -97.070786,32.912700 -97.070932,32.912713 -97.071095,32.912745 -97.071320,32.912824 -97.071521,32.912932 -97.071677,32.913063 -97.071823,32.913223 -97.071898,32.913350 -97.071948,32.913462 -97.071981,32.913575 -97.071998,32.913855 -97.071996,32.914211 -97.072031,32.914447 -97.072066,32.914537 -97.072132,32.914655 -97.072239,32.914778 -97.072338,32.914873 -97.072522,32.914990 -97.072593,32.915024 -97.072789,32.915116 -97.072942,32.915153 -97.074095,32.915184 -97.075434,32.915209 -97.077175,32.915206 -97.077319,32.915223 -97.077531,32.915281 -97.077701,32.915348 -97.077933,32.915483 -97.078015,32.915551 -97.078079,32.915604 -97.078148,32.915682 -97.078235,32.915805 -97.078304,32.915968 -97.078339,32.916103 -97.078367,32.916617 -97.078356,32.917432 -97.078304,32.918195"/>
    <edge id="-107888" from="60599" to="60651" priority="0" numLanes="4" speed="15.65" shape="-97.125055,32.900020 -97.125059,32.900392 -97.125064,32.901743 -97.125064,32.902060 -97.125063,32.902358 -97.125062,32.902767 -97.125062,32.902908 -97.125062,32.903163 -97.125061,32.903365 -97.125070,32.903985 -97.125059,32.904951 -97.125057,32.905481 -97.125057,32.905529 -97.125056,32.906216 -97.125053,32.906746 -97.125047,32.908104 -97.125048,32.908283 -97.125047,32.908801 -97.125039,32.910055 -97.125003,32.910931 -97.124988,32.911636 -97.124959,32.912268 -97.124974,32.912414 -97.125009,32.912548 -97.125200,32.912988 -97.125302,32.913169 -97.125426,32.913358 -97.125941,32.914012 -97.126047,32.914164 -97.126112,32.914327 -97.126157,32.914471 -97.126163,32.914540 -97.126200,32.914923"/>
    <edge id="-107889" from="60655" to="60599" priority="0" numLanes="4" speed="15.65"/>
    <edge id="-107890" from="60656" to="60655" priority="0" numLanes="4" speed="15.65" shape="-97.113694,32.893294 -97.115010,32.893284 -97.115924,32.893262 -97.116911,32.893207 -97.119708,32.893018 -97.120463,32.892961 -97.121928,32.892867 -97.123586,32.892752 -97.125063,32.892620"/>
    <edge id="-107891" from="60688" to="60656" priority="0" numLanes="4" speed="15.65" shape="-97.105441,32.893314 -97.110865,32.893318 -97.111118,32.893313 -97.112235,32.893303 -97.113009,32.893296 -97.113694,32.893294"/>
    <edge id="-107892" from="60656" to="60657" priority="0" numLanes="2" speed="13.41" shape="-97.113694,32.893294 -97.113649,32.895249 -97.113628,32.896177 -97.113621,32.896479 -97.113615,32.897724 -97.113610,32.897919 -97.113589,32.899124"/>
    <edge id="-107893" from="60657" to="62214" priority="0" numLanes="2" speed="13.41" shape="-97.113589,32.899124 -97.113572,32.900418 -97.113542,32.901137 -97.113498,32.901936"/>
    <edge id="-107894" from="61657" to="61686" priority="0" numLanes="4" speed="13.41" shape="-97.090918,32.881130 -97.090956,32.881225 -97.090962,32.882396 -97.090975,32.883157 -97.091016,32.885183 -97.091025,32.886150 -97.091018,32.886890 -97.091004,32.888067 -97.091017,32.888887"/>
    <edge id="-107895" from="62243" to="62244" priority="0" numLanes="6" speed="15.65" shape="-97.116212,32.940815 -97.116258,32.941117 -97.116684,32.942681 -97.116722,32.942868 -97.116716,32.943002"/>
    <edge id="-107896" from="62157" to="62243" priority="0" numLanes="4" speed="15.65" shape="-97.116172,32.931978 -97.116199,32.933339 -97.116164,32.934851 -97.116210,32.940700 -97.116212,32.940815"/>
    <edge id="-107897" from="60638" to="62157" priority="0" numLanes="2" speed="13.41" shape="-97.117473,32.926238 -97.117378,32.931824 -97.117082,32.931944 -97.116172,32.931978"/>
    <edge id="-107898" from="62158" to="62157" priority="0" numLanes="4" speed="15.65" shape="-97.114351,32.927192 -97.114593,32.927352 -97.114813,32.927534 -97.115016,32.927738 -97.115202,32.927966 -97.115373,32.928217 -97.115526,32.928491 -97.115664,32.928787 -97.115784,32.929107 -97.115889,32.929449 -97.115977,32.929815 -97.116048,32.930203 -97.116103,32.930614 -97.116141,32.931049 -97.116163,32.931506 -97.116172,32.931978"/>
    <edge id="-107899" from="62158" to="60638" priority="0" numLanes="4" speed="13.41" shape="-97.114351,32.927192 -97.114503,32.927026 -97.114658,32.926873 -97.114821,32.926735 -97.114994,32.926612 -97.115176,32.926504 -97.115366,32.926410 -97.115566,32.926332 -97.115774,32.926268 -97.115992,32.926219 -97.116218,32.926185 -97.116453,32.926165 -97.116698,32.926161 -97.116951,32.926171 -97.117213,32.926196 -97.117473,32.926238"/>
    <edge id="-107900" from="62209" to="62158" priority="0" numLanes="4" speed="15.65" shape="-97.106691,32.926316 -97.107714,32.927377 -97.108103,32.927567 -97.108354,32.927621 -97.108769,32.927667 -97.109088,32.927681 -97.109835,32.927690 -97.110473,32.927635 -97.111050,32.927507 -97.111727,32.927287 -97.112515,32.927069 -97.113277,32.926953 -97.113790,32.927031 -97.114351,32.927192"/>
    <edge id="-107901" from="62160" to="62159" priority="0" numLanes="4" speed="17.88" shape="-97.088103,32.941077 -97.088602,32.941078 -97.089743,32.941083 -97.090668,32.941095 -97.094060,32.941125 -97.095291,32.941111 -97.095745,32.941114 -97.096507,32.941125 -97.096997,32.941132 -97.097867,32.941127 -97.098387,32.941124 -97.099352,32.941082"/>
    <edge id="-107902" from="62298" to="62160" priority="0" numLanes="4" speed="17.88" shape="-97.084488,32.941067 -97.087258,32.941086 -97.088103,32.941077"/>
    <edge id="-107903" from="62299" to="62298" priority="0" numLanes="4" speed="17.88" shape="-97.082052,32.941065 -97.083411,32.941069 -97.084295,32.941066 -97.084488,32.941067"/>
    <edge id="-107904" from="62291" to="62299" priority="0" numLanes="4" speed="17.88" shape="-97.078169,32.941030 -97.078894,32.941058 -97.080271,32.941054 -97.081315,32.941060 -97.082052,32.941065"/>
    <edge id="-107905" from="62291" to="62290" priority="0" numLanes="4" speed="17.88" shape="-97.078169,32.941030 -97.077774,32.941046 -97.077361,32.941043 -97.077100,32.941045 -97.076357,32.941048 -97.074894,32.941041 -97.073364,32.941033"/>
    <edge id="-107906" from="62290" to="62307" priority="0" numLanes="4" speed="20.12" shape="-97.073364,32.941033 -97.071974,32.941039 -97.069610,32.941025 -97.069443,32.941026 -97.067592,32.941016 -97.066928,32.941026 -97.066496,32.941076"/>
    <edge id="-107907" from="62159" to="62161" priority="0" numLanes="6" speed="17.88" shape="-97.099352,32.941082 -97.099319,32.941628 -97.099295,32.942175 -97.099299,32.942725 -97.099302,32.943884 -97.099301,32.944032 -97.099295,32.944637 -97.099282,32.945432 -97.099278,32.945651 -97.099275,32.945762 -97.099277,32.946221 -97.099270,32.946417 -97.099216,32.946929 -97.099202,32.947025 -97.099157,32.947190 -97.098966,32.947790 -97.098726,32.948494 -97.098463,32.949282 -97.098433,32.949399 -97.098352,32.949718 -97.098292,32.950116 -97.098274,32.950355 -97.098278,32.951129 -97.098270,32.951872 -97.098264,32.952185 -97.098256,32.952698 -97.098252,32.952949 -97.098245,32.954653 -97.098253,32.954786"/>
    <edge id="-107908" from="62306" to="62129" priority="0" numLanes="6" speed="20.12" shape="-97.064377,32.939963 -97.064433,32.940024 -97.064559,32.940253 -97.064628,32.940498 -97.064653,32.940937 -97.064633,32.941374"/>
    <edge id="-107909" from="62110" to="60661" priority="0" numLanes="4" speed="17.88" shape="-97.109255,32.956349 -97.109988,32.956509 -97.110178,32.956563 -97.110536,32.956707 -97.110831,32.956863 -97.110919,32.956921 -97.110985,32.956965 -97.111549,32.957339 -97.111761,32.957482 -97.112464,32.957961 -97.113201,32.958459 -97.113960,32.958956 -97.114463,32.959285 -97.115217,32.959810 -97.116354,32.960582 -97.116706,32.960796"/>
    <edge id="-107910" from="62161" to="62110" priority="0" numLanes="4" speed="17.88" shape="-97.098253,32.954786 -97.098395,32.954784 -97.099150,32.954782 -97.101578,32.954761 -97.102164,32.954751 -97.102388,32.954748 -97.102761,32.954782 -97.102850,32.954802 -97.103150,32.954871 -97.103395,32.954973 -97.103621,32.955078 -97.104019,32.955195 -97.104390,32.955297 -97.104828,32.955388 -97.104969,32.955417 -97.105284,32.955482 -97.106147,32.955666 -97.107076,32.955873 -97.107412,32.955948 -97.107840,32.956036 -97.108719,32.956243 -97.108998,32.956309 -97.109255,32.956349"/>
    <edge id="-107911" from="62162" to="62161" priority="0" numLanes="4" speed="15.65" shape="-97.090741,32.954823 -97.091432,32.954814 -97.092330,32.954802 -97.094764,32.954792 -97.095122,32.954790 -97.095644,32.954784 -97.095847,32.954785 -97.096571,32.954787 -97.097296,32.954789 -97.097416,32.954789 -97.098054,32.954787 -97.098253,32.954786"/>
    <edge id="-107912" from="62160" to="62162" priority="0" numLanes="4" speed="13.41" shape="-97.088103,32.941077 -97.088531,32.941581 -97.089035,32.942244 -97.089270,32.942554 -97.090093,32.943582 -97.090256,32.943789 -97.090547,32.944136 -97.090622,32.944295 -97.090659,32.944397 -97.090678,32.944487 -97.090684,32.945173 -97.090693,32.946108 -97.090732,32.947549 -97.090743,32.948202 -97.090726,32.949561 -97.090703,32.951476 -97.090746,32.952680 -97.090729,32.952968 -97.090716,32.953361 -97.090715,32.953564 -97.090714,32.953656 -97.090712,32.953863 -97.090741,32.954823"/>
    <edge id="-107913" from="62301" to="62160" priority="0" numLanes="4" speed="13.41" shape="-97.087501,32.940149 -97.087501,32.940341 -97.087761,32.940624 -97.088103,32.941077"/>
    <edge id="-107914" from="62292" to="62162" priority="0" numLanes="4" speed="15.65" shape="-97.077735,32.946657 -97.078159,32.946560 -97.078688,32.946547 -97.079307,32.946709 -97.079786,32.947006 -97.080126,32.947301 -97.080328,32.947614 -97.080550,32.948140 -97.080534,32.949169 -97.080616,32.949752 -97.080863,32.950143 -97.081204,32.950438 -97.081706,32.950735 -97.082944,32.951001 -97.083424,32.951239 -97.083788,32.951515 -97.084128,32.951849 -97.084353,32.952201 -97.085182,32.953608 -97.085454,32.953863 -97.085772,32.954119 -97.086183,32.954337 -97.087055,32.954522 -97.088686,32.954734 -97.090741,32.954823"/>
    <edge id="-107915" from="62293" to="62292" priority="0" numLanes="4" speed="15.65" shape="-97.073334,32.945868 -97.073496,32.945865 -97.073968,32.945907 -97.074158,32.945935 -97.074314,32.945977 -97.074552,32.946052 -97.075057,32.946197 -97.076080,32.946475 -97.076399,32.946558 -97.076853,32.946630 -97.077194,32.946655 -97.077735,32.946657"/>
    <edge id="-107916" from="62308" to="62293" priority="0" numLanes="4" speed="15.65" shape="-97.064553,32.945911 -97.066082,32.945914 -97.067920,32.945916 -97.069423,32.945916 -97.069841,32.945910 -97.070310,32.945905 -97.070533,32.945900 -97.070642,32.945886 -97.070785,32.945881 -97.071282,32.945890 -97.071897,32.945880 -97.072182,32.945885 -97.073334,32.945868"/>
    <edge id="-107917" from="62124" to="62123" priority="0" numLanes="2" speed="17.88" shape="-97.055007,32.948981 -97.055077,32.949040 -97.055140,32.949094 -97.055555,32.949448 -97.056207,32.950069 -97.056347,32.950224 -97.056580,32.950507 -97.056651,32.950619 -97.056718,32.950770 -97.056769,32.950916 -97.056789,32.951047 -97.056801,32.951307 -97.056791,32.951438 -97.056754,32.951604 -97.056673,32.951843 -97.056138,32.952966 -97.055700,32.953938 -97.055336,32.954706 -97.055168,32.954981 -97.054975,32.955435 -97.054889,32.955763 -97.054873,32.956173 -97.054863,32.956668 -97.054868,32.956870 -97.054871,32.958850 -97.054841,32.961902 -97.054899,32.962330 -97.054955,32.962612 -97.055113,32.963632 -97.055246,32.964597 -97.055545,32.966520 -97.055834,32.968452 -97.055994,32.969437 -97.056134,32.970412 -97.056501,32.972792 -97.056749,32.974412 -97.056898,32.975473 -97.056992,32.976071 -97.057015,32.976210 -97.057077,32.976574 -97.057149,32.976870 -97.057253,32.977138 -97.057384,32.977417 -97.057618,32.977751 -97.057912,32.978079 -97.058232,32.978386"/>
    <edge id="-107918" from="62123" to="62125" priority="0" numLanes="2" speed="17.88" shape="-97.058232,32.978386 -97.058493,32.978621 -97.058980,32.979071 -97.059885,32.979956 -97.061498,32.981418 -97.062050,32.981924 -97.062508,32.982407 -97.063847,32.983682 -97.064070,32.983904 -97.064139,32.983992 -97.064281,32.984180 -97.064338,32.984281 -97.064406,32.984400 -97.064450,32.984483 -97.065049,32.985716"/>
    <edge id="-107919" from="62525" to="62521" priority="0" numLanes="6" speed="24.59" shape="-97.038657,32.982953 -97.038765,32.983067 -97.038999,32.983315 -97.039333,32.983655 -97.039440,32.983747 -97.040244,32.984423 -97.040333,32.984482 -97.040431,32.984532 -97.040548,32.984618 -97.040738,32.984742 -97.040920,32.984863 -97.041062,32.984952"/>
    <edge id="-107920" from="62519" to="62127" priority="0" numLanes="6" speed="24.59" shape="-97.042432,32.985647 -97.042460,32.985659 -97.042610,32.985720 -97.042892,32.985830 -97.043124,32.985917 -97.043460,32.986028 -97.043648,32.986092"/>
    <edge id="-107921" from="62127" to="62126" priority="0" numLanes="6" speed="24.59" shape="-97.043648,32.986092 -97.044194,32.986238 -97.044468,32.986307 -97.044912,32.986401 -97.045184,32.986453 -97.045430,32.986491 -97.045693,32.986527 -97.045935,32.986554 -97.046133,32.986574 -97.046337,32.986593 -97.046535,32.986602 -97.046899,32.986616 -97.047222,32.986620 -97.047800,32.986625 -97.048886,32.986638 -97.049529,32.986644 -97.050233,32.986651 -97.051041,32.986647 -97.052064,32.986649 -97.053435,32.986655 -97.054255,32.986661 -97.054966,32.986666 -97.055626,32.986664 -97.056338,32.986672 -97.056670,32.986690 -97.056987,32.986722 -97.057339,32.986775 -97.057578,32.986819 -97.057828,32.986877 -97.058155,32.986966 -97.058371,32.987035 -97.058676,32.987146 -97.059167,32.987364"/>
    <edge id="-107922" from="62509" to="62528" priority="0" numLanes="4" speed="20.12"/>
    <edge id="-107923" from="62513" to="62509" priority="0" numLanes="4" speed="17.88" shape="-97.024778,32.973205 -97.026469,32.973221 -97.026505,32.973222 -97.026687,32.973224 -97.026745,32.973225 -97.026844,32.973222 -97.026908,32.973220 -97.026970,32.973220 -97.027017,32.973220 -97.027217,32.973221 -97.027241,32.973219 -97.027287,32.973217 -97.027633,32.973209"/>
    <edge id="-107924" from="62117" to="62513" priority="0" numLanes="4" speed="17.88"/>
    <edge id="-107925" from="62564" to="62117" priority="0" numLanes="4" speed="15.65" shape="-97.011259,32.973130 -97.011333,32.973129 -97.011809,32.973130 -97.012774,32.973121 -97.012884,32.973116 -97.013209,32.973123 -97.014876,32.973149"/>
    <edge id="-107926" from="62114" to="62564" priority="0" numLanes="4" speed="15.65" shape="-97.006501,32.969552 -97.006678,32.969704 -97.006715,32.969730 -97.006772,32.969771 -97.006917,32.969880 -97.007269,32.970149 -97.008165,32.970815 -97.008391,32.970993 -97.008916,32.971378 -97.009686,32.971950 -97.009703,32.971964 -97.009866,32.972098 -97.010951,32.972894 -97.011259,32.973130"/>
    <edge id="-107927" from="62575" to="62114" priority="0" numLanes="4" speed="15.65" shape="-97.000482,32.969593 -97.000598,32.969606 -97.001378,32.969612 -97.002259,32.969623 -97.004348,32.969614 -97.006035,32.969600 -97.006501,32.969552"/>
    <edge id="-107928" from="62412" to="62428" priority="0" numLanes="4" speed="17.88" shape="-97.044621,32.955160 -97.047487,32.955184 -97.047655,32.955208 -97.048046,32.955390"/>
    <edge id="-107929" from="62332" to="62348" priority="0" numLanes="4" speed="17.88" shape="-97.022016,32.954987 -97.022170,32.954979 -97.022237,32.954979 -97.022607,32.954971 -97.028027,32.954974 -97.028185,32.954976 -97.030081,32.954989 -97.032568,32.955006"/>