<?xml version="1.0" encoding="UTF-8"?>

<!-- generated on Tue Feb 12 11:21:18 2019 by Eclipse SUMO netconvert Version v1_1_0+0090-23cbd8772d
<configuration xmlns:xsi="http://www.w3.org/2001/XMLSchema-instance" xsi:noNamespaceSchemaLocation="http://sumo.dlr.de/xsd/netconvertConfiguration.xsd">

    <input>
        <sumo-net-file value="net.net.xml"/>
    </input>

    <output>
        <plain-output-prefix value="dfw"/>
    </output>

    <projection>
        <proj.plain-geo value="true"/>
    </projection>

    <processing>
        <geometry.max-grade.fix value="false"/>
        <offset.disable-normalization value="true"/>
        <lefthand value="false"/>
    </processing>

    <junctions>
        <no-turnarounds value="true"/>
        <junctions.corner-detail value="5"/>
        <junctions.limit-turn-speed value="5.5"/>
        <rectangular-lane-cut value="false"/>
    </junctions>

    <pedestrian>
        <walkingareas value="false"/>
    </pedestrian>

</configuration>
-->

<tlLogics version="1.1" xmlns:xsi="http://www.w3.org/2001/XMLSchema-instance" xsi:noNamespaceSchemaLocation="http://sumo.dlr.de/xsd/tllogic_file.xsd">
    <tlLogic id="54810" type="static" programID="0" offset="0">
        <phase duration="42" state="rrrrrrrGGGGGggrrrrrrrGGGGGgg"/>
        <phase duration="3"  state="rrrrrrryyyyyyyrrrrrrryyyyyyy"/>
        <phase duration="42" state="GGGGGggrrrrrrrGGGGGggrrrrrrr"/>
        <phase duration="3"  state="yyyyyyyrrrrrrryyyyyyyrrrrrrr"/>
    </tlLogic>
    <tlLogic id="54811" type="static" programID="0" offset="0">
        <phase duration="41" state="rrrrrrrGGGGGggrrrrrrrGGGGGgg"/>
        <phase duration="4"  state="rrrrrrryyyyyyyrrrrrrryyyyyyy"/>
        <phase duration="41" state="GGGGGggrrrrrrrGGGGGggrrrrrrr"/>
        <phase duration="4"  state="yyyyyyyrrrrrrryyyyyyyrrrrrrr"/>
    </tlLogic>
    <tlLogic id="54812" type="static" programID="0" offset="0">
        <phase duration="42" state="GGGGGggrrrrrrrGGGGGggrrrrrrr"/>
        <phase duration="3"  state="yyyyyyyrrrrrrryyyyyyyrrrrrrr"/>
        <phase duration="42" state="rrrrrrrGGGGGggrrrrrrrGGGGGgg"/>
        <phase duration="3"  state="rrrrrrryyyyyyyrrrrrrryyyyyyy"/>
    </tlLogic>
    <tlLogic id="54813" type="static" programID="0" offset="0">
        <phase duration="41" state="rrrrrrrGGGGGggrrrrrrrGGGGGgg"/>
        <phase duration="4"  state="rrrrrrryyyyyyyrrrrrrryyyyyyy"/>
        <phase duration="41" state="GGGGGggrrrrrrrGGGGGggrrrrrrr"/>
        <phase duration="4"  state="yyyyyyyrrrrrrryyyyyyyrrrrrrr"/>
    </tlLogic>
    <tlLogic id="54815" type="static" programID="0" offset="0">
        <phase duration="40" state="GGGGGGGggrrrrrrrrrrGGGGGGGgg"/>
        <phase duration="5"  state="yyyyyyyyyrrrrrrrrrryyyyyyyyy"/>
        <phase duration="40" state="rrrrrrrrrGGGGGGGGGgGrrrrrrrr"/>
        <phase duration="5"  state="rrrrrrrrryyyyyyyyyyyrrrrrrrr"/>
    </tlLogic>
    <tlLogic id="54820" type="static" programID="0" offset="0">
        <phase duration="41" state="rrrrrrrGGGGGggrrrrrrrGGGGGgg"/>
        <phase duration="4"  state="rrrrrrryyyyyyyrrrrrrryyyyyyy"/>
        <phase duration="41" state="GGGGGggrrrrrrrGGGGGggrrrrrrr"/>
        <phase duration="4"  state="yyyyyyyrrrrrrryyyyyyyrrrrrrr"/>
    </tlLogic>
    <tlLogic id="54821" type="static" programID="0" offset="0">
        <phase duration="40" state="rrrrrrrrrGGGGGGGggrrrrrrrrrGGGGGGGgg"/>
        <phase duration="5"  state="rrrrrrrrryyyyyyyyyrrrrrrrrryyyyyyyyy"/>
        <phase duration="40" state="GGGGGGgggrrrrrrrrrGGGGGGgggrrrrrrrrr"/>
        <phase duration="5"  state="yyyyyyyyyrrrrrrrrryyyyyyyyyrrrrrrrrr"/>
    </tlLogic>
    <tlLogic id="54826" type="static" programID="0" offset="0">
        <phase duration="40" state="GGGGGGgGGr"/>
        <phase duration="5"  state="yyyyyyyyyr"/>
        <phase duration="40" state="GGGGGGrGGg"/>
        <phase duration="5"  state="yyyyyyryyy"/>
    </tlLogic>
    <tlLogic id="54827" type="static" programID="0" offset="0">
        <phase duration="41" state="rrrrrGGGggrrrrrGGGgg"/>
        <phase duration="4"  state="rrrrryyyyyrrrrryyyyy"/>
        <phase duration="41" state="GGGggrrrrrGGGggrrrrr"/>
        <phase duration="4"  state="yyyyyrrrrryyyyyrrrrr"/>
    </tlLogic>
    <tlLogic id="54832" type="static" programID="0" offset="0">
        <phase duration="41" state="rrrrrGGGGGggrrrrrGGGGGgg"/>
        <phase duration="4"  state="rrrrryyyyyyyrrrrryyyyyyy"/>
        <phase duration="41" state="GGGggrrrrrrrGGGggrrrrrrr"/>
        <phase duration="4"  state="yyyyyrrrrrrryyyyyrrrrrrr"/>
    </tlLogic>
    <tlLogic id="54833" type="static" programID="0" offset="0">
        <phase duration="40" state="GGGGGGGggrrrrrrrrrGGGGGGGggrrrrrrrrr"/>
        <phase duration="5"  state="yyyyyyyyyrrrrrrrrryyyyyyyyyrrrrrrrrr"/>
        <phase duration="40" state="rrrrrrrrrGGGGGGgggrrrrrrrrrGGGGGGggg"/>
        <phase duration="5"  state="rrrrrrrrryyyyyyyyyrrrrrrrrryyyyyyyyy"/>
    </tlLogic>
    <tlLogic id="54835" type="static" programID="0" offset="0">
        <phase duration="40" state="rrrrrrrGGGGGGGggrrrrrrrGGGGGGGgg"/>
        <phase duration="5"  state="rrrrrrryyyyyyyyyrrrrrrryyyyyyyyy"/>
        <phase duration="40" state="GGGGgggrrrrrrrrrGGGGgggrrrrrrrrr"/>
        <phase duration="5"  state="yyyyyyyrrrrrrrrryyyyyyyrrrrrrrrr"/>
    </tlLogic>
    <tlLogic id="54837" type="static" programID="0" offset="0">
        <phase duration="35" state="GGGGGGGrGGGGGrrrrrrrrrrr"/>
        <phase duration="5"  state="yyyyyyyryyyyyrrrrrrrrrrr"/>
        <phase duration="6"  state="rrrrrrrGrrrrrGGGrrrrrrrr"/>
        <phase duration="5"  state="rrrrrrryrrrrryyyrrrrrrrr"/>
        <phase duration="34" state="GrrrrrrrrrrrrrrrGGGGGGGg"/>
        <phase duration="5"  state="yrrrrrrrrrrrrrrryyyyyyyy"/>
    </tlLogic>
    <tlLogic id="54848" type="static" programID="0" offset="0">
        <phase duration="35" state="rrrrrrrrGGGGGrrGGGGGGGr"/>
        <phase duration="5"  state="rrrrrrrryyyyyrryyyyyyyr"/>
        <phase duration="6"  state="rrrrrrrrrrrrrGGrrrrrrrG"/>
        <phase duration="5"  state="rrrrrrrrrrrrryyrrrrrrry"/>
        <phase duration="34" state="GGGGGGGGrrrrrrrrrrrrrrr"/>
        <phase duration="5"  state="yyyyyyyyrrrrrrrrrrrrrrr"/>
    </tlLogic>
    <tlLogic id="54849" type="static" programID="0" offset="0">
        <phase duration="29" state="rrrrrrGGGGrrrrrrGGGggg"/>
        <phase duration="5"  state="rrrrrryyyyrrrrrryyyggg"/>
        <phase duration="6"  state="rrrrrrrrrrGrrrrrrrrGGG"/>
        <phase duration="5"  state="rrrrrrrrrryrrrrrrrryyy"/>
        <phase duration="29" state="GGGgggrrrrrGGGggrrrrrr"/>
        <phase duration="5"  state="yyygggrrrrryyyggrrrrrr"/>
        <phase duration="6"  state="rrrGGGrrrrrrrrGGrrrrrr"/>
        <phase duration="5"  state="rrryyyrrrrrrrryyrrrrrr"/>
    </tlLogic>
    <tlLogic id="54864" type="static" programID="0" offset="0">
        <phase duration="36" state="GGGGGggGGGGGGGgrrrrrrrr"/>
        <phase duration="4"  state="yyyyyggyyyyyyygrrrrrrrr"/>
        <phase duration="6"  state="rrrrrGGrrrrrrrGrrrrrrrr"/>
        <phase duration="4"  state="rrrrryyrrrrrrryrrrrrrrr"/>
        <phase duration="36" state="rrrrrrrrrrrrrrrGGGGGGGG"/>
        <phase duration="4"  state="rrrrrrrrrrrrrrryyyyyyyy"/>
    </tlLogic>
    <tlLogic id="54870" type="static" programID="0" offset="0">
        <phase duration="41" state="rrrrrrrrrGGGGGGGggGGGGGGGgg"/>
        <phase duration="4"  state="rrrrrrrrryyyyyyyyyyyyyyyyyy"/>
        <phase duration="41" state="GGGGGGGGgGrrrrrrrrrrrrrrrrr"/>
        <phase duration="4"  state="yyyyyyyyyyrrrrrrrrrrrrrrrrr"/>
    </tlLogic>
    <tlLogic id="54871" type="static" programID="0" offset="0">
        <phase duration="38" state="GGgrrrGGg"/>
        <phase duration="3"  state="yygrrryyg"/>
        <phase duration="6"  state="rrGrrrrrG"/>
        <phase duration="3"  state="rryrrrrry"/>
        <phase duration="37" state="rrrGGgGGr"/>
        <phase duration="3"  state="rrryyyyyr"/>
    </tlLogic>
    <tlLogic id="54919" type="static" programID="0" offset="0">
        <phase duration="42" state="rrrrrrrGGGGGggrrrrrrrGGGGGgg"/>
        <phase duration="3"  state="rrrrrrryyyyyyyrrrrrrryyyyyyy"/>
        <phase duration="42" state="GGGGGggrrrrrrrGGGGGggrrrrrrr"/>
        <phase duration="3"  state="yyyyyyyrrrrrrryyyyyyyrrrrrrr"/>
    </tlLogic>
    <tlLogic id="54920" type="static" programID="0" offset="0">
        <phase duration="41" state="rrrrrrrGGGGGggrrrrrrrGGGGGgg"/>
        <phase duration="4"  state="rrrrrrryyyyyyyrrrrrrryyyyyyy"/>
        <phase duration="41" state="GGGGGggrrrrrrrGGGGGggrrrrrrr"/>
        <phase duration="4"  state="yyyyyyyrrrrrrryyyyyyyrrrrrrr"/>
    </tlLogic>
    <tlLogic id="54921" type="static" programID="0" offset="0">
        <phase duration="35" state="rrrrrrrrrGGGGGGrrrrrrrrrrrGGGGGGrr"/>
        <phase duration="5"  state="rrrrrrrrryyyyyyrrrrrrrrrrryyyyyyrr"/>
        <phase duration="6"  state="rrrrrrrrrrrrrrrGGrrrrrrrrrrrrrrrGG"/>
        <phase duration="5"  state="rrrrrrrrrrrrrrryyrrrrrrrrrrrrrrryy"/>
        <phase duration="34" state="GGGGGGgggrrrrrrrrGGGGGGgggrrrrrrrr"/>
        <phase duration="5"  state="yyyyyyyyyrrrrrrrryyyyyyyyyrrrrrrrr"/>
    </tlLogic>
    <tlLogic id="54922" type="static" programID="0" offset="0">
        <phase duration="41" state="GGGGGGgGGGGgggrrrrrr"/>
        <phase duration="4"  state="yyyyyyyyyyyyyyrrrrrr"/>
        <phase duration="41" state="GGrrrrrrrrrrrrGGGGGg"/>
        <phase duration="4"  state="yyrrrrrrrrrrrryyyyyy"/>
    </tlLogic>
    <tlLogic id="54930" type="static" programID="0" offset="0">
        <phase duration="41" state="GGGGGgGGGGggrrrrr"/>
        <phase duration="4"  state="yyyyyyyyyyyyrrrrr"/>
        <phase duration="41" state="GrrrrrrrrrrrGGGGg"/>
        <phase duration="4"  state="yrrrrrrrrrrryyyyy"/>
    </tlLogic>
    <tlLogic id="54931" type="static" programID="0" offset="0">
        <phase duration="41" state="rrrrrGGGGGgGGGGgg"/>
        <phase duration="4"  state="rrrrryyyyyyyyyyyy"/>
        <phase duration="41" state="GGGGgGrrrrrrrrrrr"/>
        <phase duration="4"  state="yyyyyyrrrrrrrrrrr"/>
    </tlLogic>
    <tlLogic id="54938" type="static" programID="0" offset="0">
        <phase duration="41" state="GGGGGGGggrrrrrrrrrGGGGGGGggrrrrrrrrr"/>
        <phase duration="4"  state="yyyyyyyyyrrrrrrrrryyyyyyyyyrrrrrrrrr"/>
        <phase duration="41" state="rrrrrrrrrGGGGGGgggrrrrrrrrrGGGGGGggg"/>
        <phase duration="4"  state="rrrrrrrrryyyyyyyyyrrrrrrrrryyyyyyyyy"/>
    </tlLogic>
    <tlLogic id="54940" type="static" programID="0" offset="0">
        <phase duration="41" state="rrrrrrrrrGGGGGGGggrrrrrrrrrGGGGGGGgg"/>
        <phase duration="4"  state="rrrrrrrrryyyyyyyyyrrrrrrrrryyyyyyyyy"/>
        <phase duration="41" state="GGGGGGgggrrrrrrrrrGGGGGGgggrrrrrrrrr"/>
        <phase duration="4"  state="yyyyyyyyyrrrrrrrrryyyyyyyyyrrrrrrrrr"/>
    </tlLogic>
    <tlLogic id="54941" type="static" programID="0" offset="0">
        <phase duration="41" state="GGGGGggrrrrrGGGGGggrrrrr"/>
        <phase duration="4"  state="yyyyyyyrrrrryyyyyyyrrrrr"/>
        <phase duration="41" state="rrrrrrrGGGggrrrrrrrGGGgg"/>
        <phase duration="4"  state="rrrrrrryyyyyrrrrrrryyyyy"/>
    </tlLogic>
    <tlLogic id="54942" type="static" programID="0" offset="0">
        <phase duration="36" state="rrrrrrrrGGGGGGGgGGGGGggg"/>
        <phase duration="4"  state="rrrrrrrryyyyyyygyyyyyggg"/>
        <phase duration="6"  state="rrrrrrrrrrrrrrrGrrrrrGGG"/>
        <phase duration="4"  state="rrrrrrrrrrrrrrryrrrrryyy"/>
        <phase duration="36" state="GGGGGGGgGrrrrrrrrrrrrrrr"/>
        <phase duration="4"  state="yyyyyyyyyrrrrrrrrrrrrrrr"/>
    </tlLogic>
    <tlLogic id="54944" type="static" programID="0" offset="0">
        <phase duration="35" state="GGGGrrrrrrrrrrrrGGGGGgggrrrrrrrrr"/>
        <phase duration="5"  state="yyyyrrrrrrrrrrrryyyyygggrrrrrrrrr"/>
        <phase duration="6"  state="rrrrGGGrrrrrrrrrrrrrrGGGrrrrrrrrr"/>
        <phase duration="5"  state="rrrryyyrrrrrrrrrrrrrryyyrrrrrrrrr"/>
        <phase duration="34" state="rrrrrrrGGGGGGGggrrrrrrrrGGGGGGGgg"/>
        <phase duration="5"  state="rrrrrrryyyyyyyyyrrrrrrrryyyyyyyyy"/>
    </tlLogic>
    <tlLogic id="54946" type="static" programID="0" offset="0">
        <phase duration="35" state="GGGGGGGrrrrrrrrrrrGGGGrrr"/>
        <phase duration="5"  state="yyyyyyyrrrrrrrrrrryyyyrrr"/>
        <phase duration="6"  state="rrrrrrrGrrrrrrrrrrrrrrGGG"/>
        <phase duration="5"  state="rrrrrrryrrrrrrrrrrrrrryyy"/>
        <phase duration="34" state="rrrrrrrrGGGGGGGGGGrrrrrrr"/>
        <phase duration="5"  state="rrrrrrrryyyyyyyyyyrrrrrrr"/>
    </tlLogic>
    <tlLogic id="54947" type="static" programID="0" offset="0">
        <phase duration="35" state="rrrrrrrrrGGGGrrrGGGGGGGr"/>
        <phase duration="5"  state="rrrrrrrrryyyyrrryyyyyyyr"/>
        <phase duration="6"  state="rrrrrrrrrrrrrGGGrrrrrrrG"/>
        <phase duration="5"  state="rrrrrrrrrrrrryyyrrrrrrry"/>
        <phase duration="34" state="GGGGGGGGGrrrrrrrrrrrrrrr"/>
        <phase duration="5"  state="yyyyyyyyyrrrrrrrrrrrrrrr"/>
    </tlLogic>
    <tlLogic id="54952" type="static" programID="0" offset="0">
        <phase duration="40" state="GGGGGGGggrrrrrrrrrGGGGGGGggrrrrrrrrr"/>
        <phase duration="5"  state="yyyyyyyyyrrrrrrrrryyyyyyyyyrrrrrrrrr"/>
        <phase duration="40" state="rrrrrrrrrGGGGGGgggrrrrrrrrrGGGGGGggg"/>
        <phase duration="5"  state="rrrrrrrrryyyyyyyyyrrrrrrrrryyyyyyyyy"/>
    </tlLogic>
    <tlLogic id="54954" type="static" programID="0" offset="0">
        <phase duration="42" state="GGGGGGGGgggrrrrrrrrrrrGGGGGGGGgggrrrrrrrrrrr"/>
        <phase duration="3"  state="yyyyyyyyyyyrrrrrrrrrrryyyyyyyyyyyrrrrrrrrrrr"/>
        <phase duration="42" state="rrrrrrrrrrrGGGGGGGGgggrrrrrrrrrrrGGGGGGGGggg"/>
        <phase duration="3"  state="rrrrrrrrrrryyyyyyyyyyyrrrrrrrrrrryyyyyyyyyyy"/>
    </tlLogic>
    <tlLogic id="54956" type="static" programID="0" offset="0">
        <phase duration="42" state="GGGGGGGggrrrrrrrGGGGGGGggrrrrrrr"/>
        <phase duration="3"  state="yyyyyyyyyrrrrrrryyyyyyyyyrrrrrrr"/>
        <phase duration="42" state="rrrrrrrrrGGGGgggrrrrrrrrrGGGGggg"/>
        <phase duration="3"  state="rrrrrrrrryyyyyyyrrrrrrrrryyyyyyy"/>
    </tlLogic>
    <tlLogic id="54958" type="static" programID="0" offset="0">
        <phase duration="38" state="GGGGGGGGggrrrrrrrrrrGGGGGGGgggrrrrrrrrr"/>
        <phase duration="3"  state="yyyyyyyyyyrrrrrrrrrryyyyyyyyyyrrrrrrrrr"/>
        <phase duration="37" state="rrrrrrrrrrGGGGGGGgggrrrrrrrrrrGGGGGGggg"/>
        <phase duration="3"  state="rrrrrrrrrryyyyyyygggrrrrrrrrrryyyyyyggg"/>
        <phase duration="6"  state="rrrrrrrrrrrrrrrrrGGGrrrrrrrrrrrrrrrrGGG"/>
        <phase duration="3"  state="rrrrrrrrrrrrrrrrryyyrrrrrrrrrrrrrrrryyy"/>
    </tlLogic>
    <tlLogic id="54960" type="static" programID="0" offset="0">
        <phase duration="38" state="rrrrrrrGGGGGGGggrrrrrrrrGGGGGGGgg"/>
        <phase duration="3"  state="rrrrrrryyyyyyyyyrrrrrrrryyyyyyyyy"/>
        <phase duration="37" state="GGGGgggrrrrrrrrrGGGGGgggrrrrrrrrr"/>
        <phase duration="3"  state="yyyygggrrrrrrrrryyyyygggrrrrrrrrr"/>
        <phase duration="6"  state="rrrrGGGrrrrrrrrrrrrrrGGGrrrrrrrrr"/>
        <phase duration="3"  state="rrrryyyrrrrrrrrrrrrrryyyrrrrrrrrr"/>
    </tlLogic>
    <tlLogic id="54962" type="static" programID="0" offset="0">
        <phase duration="38" state="rrrrrrrGGGGGGGggrrrrrrrrGGGGGGGgg"/>
        <phase duration="3"  state="rrrrrrryyyyyyyyyrrrrrrrryyyyyyyyy"/>
        <phase duration="37" state="GGGGgggrrrrrrrrrGGGGGgggrrrrrrrrr"/>
        <phase duration="3"  state="yyyygggrrrrrrrrryyyyygggrrrrrrrrr"/>
        <phase duration="6"  state="rrrrGGGrrrrrrrrrrrrrrGGGrrrrrrrrr"/>
        <phase duration="3"  state="rrrryyyrrrrrrrrrrrrrryyyrrrrrrrrr"/>
    </tlLogic>
    <tlLogic id="54963" type="static" programID="0" offset="0">
        <phase duration="38" state="rrrrrrrrGGGGGGGgGGGGGggg"/>
        <phase duration="3"  state="rrrrrrrryyyyyyygyyyyyggg"/>
        <phase duration="6"  state="rrrrrrrrrrrrrrrGrrrrrGGG"/>
        <phase duration="3"  state="rrrrrrrrrrrrrrryrrrrryyy"/>
        <phase duration="37" state="GGGGGGGgGrrrrrrrrrrrrrrr"/>
        <phase duration="3"  state="yyyyyyyyyrrrrrrrrrrrrrrr"/>
    </tlLogic>
    <tlLogic id="54964" type="static" programID="0" offset="0">
        <phase duration="36" state="GGgGGgrrr"/>
        <phase duration="4"  state="yygyygrrr"/>
        <phase duration="6"  state="rrGrrGrrr"/>
        <phase duration="4"  state="rryrryrrr"/>
        <phase duration="36" state="rrrrrrGGG"/>
        <phase duration="4"  state="rrrrrryyy"/>
    </tlLogic>
    <tlLogic id="54965" type="static" programID="0" offset="0">
        <phase duration="42" state="rrrrrrrrrGGGGGGGggrrrrrrrrrGGGGGGGgg"/>
        <phase duration="3"  state="rrrrrrrrryyyyyyyyyrrrrrrrrryyyyyyyyy"/>
        <phase duration="42" state="GGGGGGgggrrrrrrrrrGGGGGGgggrrrrrrrrr"/>
        <phase duration="3"  state="yyyyyyyyyrrrrrrrrryyyyyyyyyrrrrrrrrr"/>
    </tlLogic>
    <tlLogic id="54966" type="static" programID="0" offset="0">
        <phase duration="42" state="rrrrrrGGGGGGgGGGGggg"/>
        <phase duration="3"  state="rrrrrryyyyyyyyyyyyyy"/>
        <phase duration="42" state="GGGGGgGGrrrrrrrrrrrr"/>
        <phase duration="3"  state="yyyyyyyyrrrrrrrrrrrr"/>
    </tlLogic>
    <tlLogic id="54967" type="static" programID="0" offset="0">
        <phase duration="38" state="rrrrrrrrGGGGGGGggrrrrrrrGGGGGGGgg"/>
        <phase duration="3"  state="rrrrrrrryyyyyyyyyrrrrrrryyyyyyyyy"/>
        <phase duration="37" state="GGGGGgggrrrrrrrrrGGGGgggrrrrrrrrr"/>
        <phase duration="3"  state="yyyyygggrrrrrrrrryyyygggrrrrrrrrr"/>
        <phase duration="6"  state="rrrrrGGGrrrrrrrrrrrrrGGGrrrrrrrrr"/>
        <phase duration="3"  state="rrrrryyyrrrrrrrrrrrrryyyrrrrrrrrr"/>
    </tlLogic>
    <tlLogic id="54969" type="static" programID="0" offset="0">
        <phase duration="36" state="GGGGgggrrrrrrrrrGGGGGgggrrrrrrrrr"/>
        <phase duration="4"  state="yyyygggrrrrrrrrryyyyygggrrrrrrrrr"/>
        <phase duration="6"  state="rrrrGGGrrrrrrrrrrrrrrGGGrrrrrrrrr"/>
        <phase duration="4"  state="rrrryyyrrrrrrrrrrrrrryyyrrrrrrrrr"/>
        <phase duration="36" state="rrrrrrrGGGGGGGggrrrrrrrrGGGGGGGgg"/>
        <phase duration="4"  state="rrrrrrryyyyyyyyyrrrrrrrryyyyyyyyy"/>
    </tlLogic>
    <tlLogic id="54970" type="static" programID="0" offset="0">
        <phase duration="41" state="GGGGGggrrrrrGGGGGggrrrrr"/>
        <phase duration="4"  state="yyyyyyyrrrrryyyyyyyrrrrr"/>
        <phase duration="41" state="rrrrrrrGGGggrrrrrrrGGGgg"/>
        <phase duration="4"  state="rrrrrrryyyyyrrrrrrryyyyy"/>
    </tlLogic>
    <tlLogic id="54973" type="static" programID="0" offset="0">
        <phase duration="35" state="GGGGGGGggrrrrrrrGGGGGGGggrrrrrrrr"/>
        <phase duration="5"  state="yyyyyyyyyrrrrrrryyyyyyyyyrrrrrrrr"/>
        <phase duration="34" state="rrrrrrrrrGGGGgggrrrrrrrrrGGGGGggg"/>
        <phase duration="5"  state="rrrrrrrrryyyygggrrrrrrrrryyyyyggg"/>
        <phase duration="6"  state="rrrrrrrrrrrrrGGGrrrrrrrrrrrrrrGGG"/>
        <phase duration="5"  state="rrrrrrrrrrrrryyyrrrrrrrrrrrrrryyy"/>
    </tlLogic>
    <tlLogic id="54987" type="static" programID="0" offset="0">
        <phase duration="35" state="GGGGGGGgrrrrrrrrrrGGGGrrr"/>
        <phase duration="5"  state="yyyyyyygrrrrrrrrrryyyyrrr"/>
        <phase duration="6"  state="rrrrrrrGrrrrrrrrrrrrrrGGG"/>
        <phase duration="5"  state="rrrrrrryrrrrrrrrrrrrrryyy"/>
        <phase duration="34" state="rrrrrrrrGGGGGGGGGGrrrrrrr"/>
        <phase duration="5"  state="rrrrrrrryyyyyyyyyyrrrrrrr"/>
    </tlLogic>
    <tlLogic id="54988" type="static" programID="0" offset="0">
        <phase duration="81" state="GGGGGGgGGGGGGg"/>
        <phase duration="4"  state="yyyyyyyyyyyyyy"/>
        <phase duration="5"  state="rrrrrrrrrrrrrr"/>
    </tlLogic>
    <tlLogic id="54994" type="static" programID="0" offset="0">
        <phase duration="40" state="rrrrrrrrrGGGGGGGggrrrrrrrrrGGGGGGGgg"/>
        <phase duration="5"  state="rrrrrrrrryyyyyyyyyrrrrrrrrryyyyyyyyy"/>
        <phase duration="40" state="GGGGGGgggrrrrrrrrrGGGGGGgggrrrrrrrrr"/>
        <phase duration="5"  state="yyyyyyyyyrrrrrrrrryyyyyyyyyrrrrrrrrr"/>
    </tlLogic>
    <tlLogic id="54995" type="static" programID="0" offset="0">
        <phase duration="40" state="rrrrrrrrrrrGGGGGGGGgggrrrrrrrrrrrGGGGGGGGggg"/>
        <phase duration="5"  state="rrrrrrrrrrryyyyyyyyyyyrrrrrrrrrrryyyyyyyyyyy"/>
        <phase duration="40" state="GGGGGGGGgggrrrrrrrrrrrGGGGGGGGgggrrrrrrrrrrr"/>
        <phase duration="5"  state="yyyyyyyyyyyrrrrrrrrrrryyyyyyyyyyyrrrrrrrrrrr"/>
    </tlLogic>
    <tlLogic id="55006" type="static" programID="0" offset="0">
        <phase duration="41" state="GGGGGggrrrrrrrGGGGGggrrrrrrr"/>
        <phase duration="4"  state="yyyyyyyrrrrrrryyyyyyyrrrrrrr"/>
        <phase duration="41" state="rrrrrrrGGGGGggrrrrrrrGGGGGgg"/>
        <phase duration="4"  state="rrrrrrryyyyyyyrrrrrrryyyyyyy"/>
    </tlLogic>
    <tlLogic id="55030" type="static" programID="0" offset="0">
        <phase duration="82" state="GGGGGGgGGGGGGg"/>
        <phase duration="3"  state="yyyyyyyyyyyyyy"/>
        <phase duration="5"  state="rrrrrrrrrrrrrr"/>
    </tlLogic>
    <tlLogic id="55031" type="static" programID="0" offset="0">
        <phase duration="38" state="GGGGgrrrrrrrrGGGGgg"/>
        <phase duration="3"  state="yyyygrrrrrrrryyyygg"/>
        <phase duration="6"  state="rrrrGrrrrrrrrrrrrGG"/>
        <phase duration="3"  state="rrrryrrrrrrrrrrrryy"/>
        <phase duration="37" state="rrrrrGGGGGGGGrrrrrr"/>
        <phase duration="3"  state="rrrrryyyyyyyyrrrrrr"/>
    </tlLogic>
    <tlLogic id="55045" type="static" programID="0" offset="0">
        <phase duration="80" state="GGGGGGgGGGGGGg"/>
        <phase duration="5"  state="yyyyyyyyyyyyyy"/>
        <phase duration="5"  state="rrrrrrrrrrrrrr"/>
    </tlLogic>
    <tlLogic id="55046" type="static" programID="0" offset="0">
        <phase duration="35" state="GGGGGGGggrrrrrrrGGGGGGGggrrrrrrrr"/>
        <phase duration="5"  state="yyyyyyyyyrrrrrrryyyyyyyyyrrrrrrrr"/>
        <phase duration="34" state="rrrrrrrrrGGGGgggrrrrrrrrrGGGGGggg"/>
        <phase duration="5"  state="rrrrrrrrryyyygggrrrrrrrrryyyyyggg"/>
        <phase duration="6"  state="rrrrrrrrrrrrrGGGrrrrrrrrrrrrrrGGG"/>
        <phase duration="5"  state="rrrrrrrrrrrrryyyrrrrrrrrrrrrrryyy"/>
    </tlLogic>
    <tlLogic id="55051" type="static" programID="0" offset="0">
        <phase duration="35" state="GGGGGGGrrrrrrrrrrGGGGrrr"/>
        <phase duration="5"  state="yyyyyyyrrrrrrrrrryyyyrrr"/>
        <phase duration="6"  state="rrrrrrrGrrrrrrrrrrrrrGGG"/>
        <phase duration="5"  state="rrrrrrryrrrrrrrrrrrrryyy"/>
        <phase duration="34" state="rrrrrrrrGGGGGGGGGrrrrrrr"/>
        <phase duration="5"  state="rrrrrrrryyyyyyyyyrrrrrrr"/>
    </tlLogic>
    <tlLogic id="55054" type="static" programID="0" offset="0">
        <phase duration="35" state="GGGGrrrGGGGGGGrrrrrrrrrrr"/>
        <phase duration="5"  state="yyyyrrryyyyyyyrrrrrrrrrrr"/>
        <phase duration="6"  state="rrrrGGGrrrrrrrGrrrrrrrrrr"/>
        <phase duration="5"  state="rrrryyyrrrrrrryrrrrrrrrrr"/>
        <phase duration="34" state="rrrrrrrrrrrrrrrGGGGGGGGGG"/>
        <phase duration="5"  state="rrrrrrrrrrrrrrryyyyyyyyyy"/>
    </tlLogic>
    <tlLogic id="55068" type="static" programID="0" offset="0">
        <phase duration="35" state="rrrrrrrrrrGGGGrrrGGGGGGGr"/>
        <phase duration="5"  state="rrrrrrrrrryyyyrrryyyyyyyr"/>
        <phase duration="6"  state="rrrrrrrrrrrrrrGGGrrrrrrrG"/>
        <phase duration="5"  state="rrrrrrrrrrrrrryyyrrrrrrry"/>
        <phase duration="34" state="GGGGGGGGGGrrrrrrrrrrrrrrr"/>
        <phase duration="5"  state="yyyyyyyyyyrrrrrrrrrrrrrrr"/>
    </tlLogic>
    <tlLogic id="55078" type="static" programID="0" offset="0">
        <phase duration="36" state="GGGGgrrrrrrrGGGGgg"/>
        <phase duration="4"  state="yyyygrrrrrrryyyygg"/>
        <phase duration="6"  state="rrrrGrrrrrrrrrrrGG"/>
        <phase duration="4"  state="rrrryrrrrrrrrrrryy"/>
        <phase duration="36" state="rrrrrGGGGGGGrrrrrr"/>
        <phase duration="4"  state="rrrrryyyyyyyrrrrrr"/>
    </tlLogic>
    <tlLogic id="55089" type="static" programID="0" offset="0">
        <phase duration="35" state="GGGGGGGrrrrrrrrrGGGGGrr"/>
        <phase duration="5"  state="yyyyyyyrrrrrrrrryyyyyrr"/>
        <phase duration="6"  state="rrrrrrrGrrrrrrrrrrrrrGG"/>
        <phase duration="5"  state="rrrrrrryrrrrrrrrrrrrryy"/>
        <phase duration="34" state="rrrrrrrrGGGGGGGGrrrrrrr"/>
        <phase duration="5"  state="rrrrrrrryyyyyyyyrrrrrrr"/>
    </tlLogic>
    <tlLogic id="55095" type="static" programID="0" offset="0">
        <phase duration="35" state="rrrrrrrrGGGGGrrGGGGGGGr"/>
        <phase duration="5"  state="rrrrrrrryyyyyrryyyyyyyr"/>
        <phase duration="6"  state="rrrrrrrrrrrrrGGrrrrrrrG"/>
        <phase duration="5"  state="rrrrrrrrrrrrryyrrrrrrry"/>
        <phase duration="34" state="GGGGGGGGrrrrrrrrrrrrrrr"/>
        <phase duration="5"  state="yyyyyyyyrrrrrrrrrrrrrrr"/>
    </tlLogic>
    <tlLogic id="55103" type="static" programID="0" offset="0">
        <phase duration="35" state="GGGGGGGrrrrrrrrrGGGGrrr"/>
        <phase duration="5"  state="yyyyyyyrrrrrrrrryyyyrrr"/>
        <phase duration="6"  state="rrrrrrrGrrrrrrrrrrrrGGG"/>
        <phase duration="5"  state="rrrrrrryrrrrrrrrrrrryyy"/>
        <phase duration="34" state="rrrrrrrrGGGGGGGGrrrrrrr"/>
        <phase duration="5"  state="rrrrrrrryyyyyyyyrrrrrrr"/>
    </tlLogic>
    <tlLogic id="55109" type="static" programID="0" offset="0">
        <phase duration="35" state="rrrrrrrGGGGGGGggrrrrrrrrGGGGGGGgg"/>
        <phase duration="5"  state="rrrrrrryyyyyyyyyrrrrrrrryyyyyyyyy"/>
        <phase duration="34" state="GGGGgggrrrrrrrrrGGGGGgggrrrrrrrrr"/>
        <phase duration="5"  state="yyyygggrrrrrrrrryyyyygggrrrrrrrrr"/>
        <phase duration="6"  state="rrrrGGGrrrrrrrrrrrrrrGGGrrrrrrrrr"/>
        <phase duration="5"  state="rrrryyyrrrrrrrrrrrrrryyyrrrrrrrrr"/>
    </tlLogic>
    <tlLogic id="55125" type="static" programID="0" offset="0">
        <phase duration="35" state="rrrrrrrrrrGGGGrrrGGGGGGGr"/>
        <phase duration="5"  state="rrrrrrrrrryyyyrrryyyyyyyr"/>
        <phase duration="6"  state="rrrrrrrrrrrrrrGGGrrrrrrrG"/>
        <phase duration="5"  state="rrrrrrrrrrrrrryyyrrrrrrry"/>
        <phase duration="34" state="GGGGGGGGGGrrrrrrrrrrrrrrr"/>
        <phase duration="5"  state="yyyyyyyyyyrrrrrrrrrrrrrrr"/>
    </tlLogic>
    <tlLogic id="55126" type="static" programID="0" offset="0">
        <phase duration="81" state="G"/>
        <phase duration="4"  state="y"/>
        <phase duration="5"  state="r"/>
    </tlLogic>
    <tlLogic id="55138" type="static" programID="0" offset="0">
        <phase duration="41" state="rrrrrrrrrGGGGGGGggrrrrrrrrrGGGGGGGgg"/>
        <phase duration="4"  state="rrrrrrrrryyyyyyyyyrrrrrrrrryyyyyyyyy"/>
        <phase duration="41" state="GGGGGGgggrrrrrrrrrGGGGGGgggrrrrrrrrr"/>
        <phase duration="4"  state="yyyyyyyyyrrrrrrrrryyyyyyyyyrrrrrrrrr"/>
    </tlLogic>
    <tlLogic id="55142" type="static" programID="0" offset="0">
        <phase duration="36" state="GGGGgggGGGGGGGgrrrrrrrr"/>
        <phase duration="4"  state="yyyygggyyyyyyygrrrrrrrr"/>
        <phase duration="6"  state="rrrrGGGrrrrrrrGrrrrrrrr"/>
        <phase duration="4"  state="rrrryyyrrrrrrryrrrrrrrr"/>
        <phase duration="36" state="rrrrrrrrrrrrrrrGGGGGGGG"/>
        <phase duration="4"  state="rrrrrrrrrrrrrrryyyyyyyy"/>
    </tlLogic>
    <tlLogic id="55145" type="static" programID="0" offset="0">
        <phase duration="36" state="rrrrrrrrGGGGGggGGGGGGGg"/>
        <phase duration="4"  state="rrrrrrrryyyyyggyyyyyyyg"/>
        <phase duration="6"  state="rrrrrrrrrrrrrGGrrrrrrrG"/>
        <phase duration="4"  state="rrrrrrrrrrrrryyrrrrrrry"/>
        <phase duration="36" state="GGGGGGGGrrrrrrrrrrrrrrr"/>
        <phase duration="4"  state="yyyyyyyyrrrrrrrrrrrrrrr"/>
    </tlLogic>
    <tlLogic id="55222" type="static" programID="0" offset="0">
        <phase duration="41" state="rrrrrrrGGGGGggrrrrrrrGGGGGgg"/>
        <phase duration="4"  state="rrrrrrryyyyyyyrrrrrrryyyyyyy"/>
        <phase duration="41" state="GGGGGggrrrrrrrGGGGGggrrrrrrr"/>
        <phase duration="4"  state="yyyyyyyrrrrrrryyyyyyyrrrrrrr"/>
    </tlLogic>
    <tlLogic id="55223" type="static" programID="0" offset="0">
        <phase duration="41" state="rrrrrrGGGGGGgGGGGggg"/>
        <phase duration="4"  state="rrrrrryyyyyyyyyyyyyy"/>
        <phase duration="41" state="GGGGGgGGrrrrrrrrrrrr"/>
        <phase duration="4"  state="yyyyyyyyrrrrrrrrrrrr"/>
    </tlLogic>
    <tlLogic id="55234" type="static" programID="0" offset="0">
        <phase duration="82" state="GGGGgGGGGg"/>
        <phase duration="3"  state="yyyyyyyyyy"/>
        <phase duration="5"  state="rrrrrrrrrr"/>
    </tlLogic>
    <tlLogic id="55235" type="static" programID="0" offset="0">
        <phase duration="82" state="G"/>
        <phase duration="3"  state="y"/>
        <phase duration="5"  state="r"/>
    </tlLogic>
    <tlLogic id="55236" type="static" programID="0" offset="0">
        <phase duration="42" state="rrrrrrrGGGGGggrrrrrrrGGGGGgg"/>
        <phase duration="3"  state="rrrrrrryyyyyyyrrrrrrryyyyyyy"/>
        <phase duration="42" state="GGGGGggrrrrrrrGGGGGggrrrrrrr"/>
        <phase duration="3"  state="yyyyyyyrrrrrrryyyyyyyrrrrrrr"/>
    </tlLogic>
    <tlLogic id="55240" type="static" programID="0" offset="0">
        <phase duration="35" state="GGGGGrrrrrrrrrrrGGGGGGGGr"/>
        <phase duration="5"  state="yyyyyrrrrrrrrrrryyyyyyyyr"/>