<?xml version="1.0" encoding="UTF-8"?>

<!-- generated on Tue Feb 12 11:21:17 2019 by Eclipse SUMO netconvert Version v1_1_0+0090-23cbd8772d
<configuration xmlns:xsi="http://www.w3.org/2001/XMLSchema-instance" xsi:noNamespaceSchemaLocation="http://sumo.dlr.de/xsd/netconvertConfiguration.xsd">

    <input>
        <sumo-net-file value="net.net.xml"/>
    </input>

    <output>
        <plain-output-prefix value="dfw"/>
    </output>

    <projection>
        <proj.plain-geo value="true"/>
    </projection>

    <processing>
        <geometry.max-grade.fix value="false"/>
        <offset.disable-normalization value="true"/>
        <lefthand value="false"/>
    </processing>

    <junctions>
        <no-turnarounds value="true"/>
        <junctions.corner-detail value="5"/>
        <junctions.limit-turn-speed value="5.5"/>
        <rectangular-lane-cut value="false"/>
    </junctions>

    <pedestrian>
        <walkingareas value="false"/>
    </pedestrian>

</configuration>
-->

<nodes version="1.1" xmlns:xsi="http://www.w3.org/2001/XMLSchema-instance" xsi:noNamespaceSchemaLocation="http://sumo.dlr.de/xsd/nodes_file.xsd">
    <node id="54808" x="-96.992975" y="33.040158" type="priority"/>
    <node id="54809" x="-96.996730" y="33.040070" type="priority"/>
    <node id="54810" x="-97.010280" y="33.034850" type="traffic_light" tl="54810"/>
    <node id="54811" x="-97.010460" y="33.027620" type="traffic_light" tl="54811"/>
    <node id="54812" x="-97.018880" y="33.034949" type="traffic_light" tl="54812"/>
    <node id="54813" x="-97.019030" y="33.027690" type="traffic_light" tl="54813"/>
    <node id="54814" x="-96.993965" y="33.003636" type="priority"/>
    <node id="54815" x="-96.991034" y="33.003636" type="traffic_light" tl="54815"/>
    <node id="54816" x="-96.993195" y="33.004732" type="priority"/>
    <node id="54817" x="-96.994174" y="33.001198" type="priority"/>
    <node id="54818" x="-96.993645" y="33.001555" type="priority"/>
    <node id="54819" x="-96.992987" y="33.005900" type="priority"/>
    <node id="54820" x="-97.004726" y="33.010167" type="traffic_light" tl="54820"/>
    <node id="54821" x="-96.992956" y="33.012069" type="traffic_light" tl="54821"/>
    <node id="54826" x="-96.983670" y="33.041669" type="traffic_light" tl="54826"/>
    <node id="54827" x="-96.972838" y="33.027403" type="traffic_light" tl="54827"/>
    <node id="54828" x="-96.987527" y="33.031925" type="priority"/>
    <node id="54829" x="-96.987240" y="33.027429" type="priority"/>
    <node id="54830" x="-96.995404" y="33.031791" type="priority"/>
    <node id="54831" x="-96.997384" y="33.027938" type="priority"/>
    <node id="54832" x="-96.999247" y="33.027486" type="traffic_light" tl="54832"/>
    <node id="54833" x="-96.992810" y="33.027511" type="traffic_light" tl="54833"/>
    <node id="54834" x="-96.998976" y="33.022072" type="priority"/>
    <node id="54835" x="-96.992870" y="33.019150" type="traffic_light" tl="54835"/>
    <node id="54836" x="-97.001906" y="33.013347" type="priority"/>
    <node id="54837" x="-96.992918" y="33.014067" type="traffic_light" tl="54837"/>
    <node id="54838" x="-96.993432" y="33.003836" type="priority"/>
    <node id="54847" x="-96.993174" y="33.006551" type="priority"/>
    <node id="54848" x="-96.994910" y="33.003609" type="traffic_light" tl="54848"/>
    <node id="54849" x="-96.993264" y="32.998897" type="traffic_light" tl="54849"/>
    <node id="54850" x="-96.994681" y="33.002031" type="priority"/>
    <node id="54855" x="-96.971715" y="33.037235" type="priority"/>
    <node id="54856" x="-96.971534" y="33.028896" type="priority"/>
    <node id="54857" x="-96.990061" y="33.027596" type="priority"/>
    <node id="54858" x="-96.997230" y="33.034153" type="priority"/>
    <node id="54859" x="-96.996217" y="33.031648" type="priority"/>
    <node id="54860" x="-96.977597" y="33.009723" type="priority"/>
    <node id="54861" x="-96.990218" y="33.028810" type="priority"/>
    <node id="54862" x="-97.009308" y="33.052356" type="dead_end"/>
    <node id="54863" x="-96.994306" y="33.030867" type="priority"/>
    <node id="54864" x="-96.992864" y="33.029140" type="traffic_light" tl="54864"/>
    <node id="54865" x="-96.994374" y="33.031300" type="priority"/>
    <node id="54866" x="-96.988299" y="33.024731" type="priority"/>
    <node id="54867" x="-96.991340" y="33.028224" type="priority"/>
    <node id="54868" x="-96.991073" y="33.028906" type="priority"/>
    <node id="54869" x="-96.994298" y="33.031737" type="priority"/>
    <node id="54870" x="-96.992745" y="33.030926" type="traffic_light" tl="54870"/>
    <node id="54871" x="-96.992040" y="33.030877" type="traffic_light" tl="54871"/>
    <node id="54919" x="-97.027494" y="33.035282" type="traffic_light" tl="54919"/>
    <node id="54920" x="-97.027693" y="33.027784" type="traffic_light" tl="54920"/>
    <node id="54921" x="-97.061940" y="33.034270" type="traffic_light" tl="54921"/>
    <node id="54922" x="-97.062700" y="33.029933" type="traffic_light" tl="54922"/>
    <node id="54928" x="-97.094546" y="33.035964" type="priority"/>
    <node id="54929" x="-97.090865" y="33.030098" type="priority"/>
    <node id="54930" x="-97.079610" y="33.034040" type="traffic_light" tl="54930"/>
    <node id="54931" x="-97.079670" y="33.030060" type="traffic_light" tl="54931"/>
    <node id="54933" x="-97.132169" y="33.028652" type="priority"/>
    <node id="54938" x="-96.993519" y="32.976710" type="traffic_light" tl="54938"/>
    <node id="54939" x="-96.989178" y="32.977269" type="right_before_left"/>
    <node id="54940" x="-96.993584" y="32.969415" type="traffic_light" tl="54940"/>
    <node id="54941" x="-96.989015" y="32.969420" type="traffic_light" tl="54941"/>
    <node id="54942" x="-96.993407" y="32.960340" type="traffic_light" tl="54942"/>
    <node id="54943" x="-96.989151" y="32.959946" type="right_before_left"/>
    <node id="54944" x="-96.993442" y="32.947882" type="traffic_light" tl="54944"/>
    <node id="54945" x="-96.985800" y="32.948939" type="priority"/>
    <node id="54946" x="-96.993630" y="32.911610" type="traffic_light" tl="54946"/>
    <node id="54947" x="-96.992707" y="32.906324" type="traffic_light" tl="54947"/>
    <node id="54948" x="-97.007904" y="32.907799" type="priority"/>
    <node id="54949" x="-96.991041" y="32.901603" type="priority"/>
    <node id="54950" x="-97.004264" y="32.877910" type="priority"/>
    <node id="54951" x="-96.991460" y="32.880251" type="priority"/>
    <node id="54952" x="-96.991095" y="32.888726" type="traffic_light" tl="54952"/>
    <node id="54953" x="-96.996498" y="32.865618" type="priority"/>
    <node id="54954" x="-96.991563" y="32.865301" type="traffic_light" tl="54954"/>
    <node id="54955" x="-96.996290" y="32.860531" type="priority"/>
    <node id="54956" x="-96.991761" y="32.860747" type="traffic_light" tl="54956"/>
    <node id="54957" x="-96.996425" y="32.857076" type="priority"/>
    <node id="54958" x="-96.991948" y="32.857071" type="traffic_light" tl="54958"/>
    <node id="54959" x="-97.000478" y="32.850825" type="right_before_left"/>
    <node id="54960" x="-96.992080" y="32.850887" type="traffic_light" tl="54960"/>
    <node id="54961" x="-97.001281" y="32.847517" type="right_before_left"/>
    <node id="54962" x="-96.992170" y="32.847484" type="traffic_light" tl="54962"/>
    <node id="54963" x="-96.993576" y="32.832846" type="traffic_light" tl="54963"/>
    <node id="54964" x="-96.988544" y="32.834029" type="traffic_light" tl="54964"/>
    <node id="54965" x="-96.993685" y="32.828555" type="traffic_light" tl="54965"/>
    <node id="54966" x="-96.985634" y="32.828356" type="traffic_light" tl="54966"/>
    <node id="54967" x="-96.993702" y="32.821787" type="traffic_light" tl="54967"/>
    <node id="54968" x="-96.989493" y="32.821789" type="right_before_left"/>
    <node id="54969" x="-96.993746" y="32.815531" type="traffic_light" tl="54969"/>
    <node id="54970" x="-96.989481" y="32.815575" type="traffic_light" tl="54970"/>
    <node id="54971" x="-96.990235" y="32.812383" type="right_before_left"/>
    <node id="54972" x="-96.994243" y="32.806797" type="priority"/>
    <node id="54973" x="-96.994365" y="32.805090" type="traffic_light" tl="54973"/>
    <node id="54974" x="-96.986062" y="32.802183" type="priority"/>
    <node id="54985" x="-96.993531" y="32.925721" type="priority"/>
    <node id="54986" x="-96.990522" y="32.925717" type="priority"/>
    <node id="54987" x="-96.993211" y="32.985897" type="traffic_light" tl="54987"/>
    <node id="54988" x="-96.993314" y="32.983112" type="traffic_light" tl="54988"/>
    <node id="54989" x="-97.036117" y="33.032485" type="priority"/>
    <node id="54990" x="-97.036599" y="33.020754" type="priority"/>
    <node id="54993" x="-96.997212" y="32.994827" type="priority"/>
    <node id="54994" x="-96.993096" y="32.995860" type="traffic_light" tl="54994"/>
    <node id="54995" x="-96.993586" y="32.920553" type="traffic_light" tl="54995"/>
    <node id="54996" x="-96.980074" y="32.916333" type="priority"/>
    <node id="54997" x="-96.984724" y="32.911640" type="priority"/>
    <node id="55004" x="-97.104542" y="33.031022" type="priority"/>
    <node id="55005" x="-97.105960" y="33.021359" type="priority"/>
    <node id="55006" x="-97.090725" y="33.026852" type="traffic_light" tl="55006"/>
    <node id="55030" x="-96.993269" y="32.840811" type="traffic_light" tl="55030"/>
    <node id="55031" x="-96.993595" y="32.838675" type="traffic_light" tl="55031"/>
    <node id="55036" x="-97.067699" y="33.030072" type="priority"/>
    <node id="55045" x="-97.070596" y="33.033553" type="traffic_light" tl="55045"/>
    <node id="55046" x="-97.070677" y="33.030045" type="traffic_light" tl="55046"/>
    <node id="55051" x="-96.991497" y="32.878927" type="traffic_light" tl="55051"/>
    <node id="55052" x="-96.997293" y="32.871744" type="priority"/>
    <node id="55053" x="-96.995495" y="32.871822" type="priority"/>
    <node id="55054" x="-96.991553" y="32.876407" type="traffic_light" tl="55054"/>
    <node id="55055" x="-96.992911" y="32.875686" type="priority"/>
    <node id="55056" x="-97.001736" y="32.866417" type="priority"/>
    <node id="55057" x="-96.988104" y="32.837463" type="priority"/>
    <node id="55058" x="-96.994059" y="32.836721" type="priority"/>
    <node id="55059" x="-96.992738" y="32.836727" type="priority"/>
    <node id="55060" x="-96.993193" y="32.875862" type="priority"/>
    <node id="55061" x="-97.001312" y="32.867152" type="priority"/>
    <node id="55062" x="-96.995682" y="32.907997" type="priority"/>
    <node id="55063" x="-96.993514" y="32.837676" type="priority"/>
    <node id="55064" x="-96.992871" y="32.837345" type="priority"/>
    <node id="55065" x="-96.996540" y="32.836890" type="priority"/>
    <node id="55066" x="-96.991250" y="32.836863" type="priority"/>
    <node id="55067" x="-96.999627" y="32.988383" type="priority"/>
    <node id="55068" x="-96.993199" y="32.986939" type="traffic_light" tl="55068"/>
    <node id="55069" x="-96.999302" y="32.989434" type="priority"/>
    <node id="55070" x="-96.996987" y="32.987710" type="priority"/>
    <node id="55071" x="-96.986770" y="32.985986" type="priority"/>
    <node id="55072" x="-96.987814" y="32.985971" type="priority"/>
    <node id="55073" x="-96.996562" y="32.987865" type="priority"/>
    <node id="55074" x="-96.995359" y="32.907209" type="priority"/>
    <node id="55075" x="-96.988929" y="32.903445" type="priority"/>
    <node id="55076" x="-96.988600" y="32.903561" type="priority"/>
    <node id="55077" x="-96.998657" y="32.909614" type="priority"/>
    <node id="55078" x="-96.993652" y="32.834836" type="traffic_light" tl="55078"/>
    <node id="55079" x="-96.990720" y="32.835082" type="priority"/>
    <node id="55080" x="-96.996316" y="32.836278" type="priority"/>
    <node id="55081" x="-96.985600" y="32.837058" type="priority"/>
    <node id="55082" x="-96.994457" y="32.837078" type="priority"/>
    <node id="55083" x="-96.994505" y="32.837276" type="priority"/>
    <node id="55084" x="-96.987879" y="32.833730" type="priority"/>
    <node id="55089" x="-96.992079" y="32.904675" type="traffic_light" tl="55089"/>
    <node id="55090" x="-96.993548" y="32.836264" type="priority"/>
    <node id="55091" x="-96.993547" y="32.835366" type="priority"/>
    <node id="55092" x="-96.987311" y="32.836867" type="priority"/>
    <node id="55094" x="-96.987733" y="32.922789" type="priority"/>
    <node id="55095" x="-96.993531" y="32.924485" type="traffic_light" tl="55095"/>
    <node id="55096" x="-96.991299" y="32.923091" type="priority"/>
    <node id="55097" x="-96.999568" y="32.926275" type="priority"/>
    <node id="55098" x="-96.998666" y="32.997675" type="priority"/>
    <node id="55099" x="-96.999967" y="32.925865" type="priority"/>
    <node id="55100" x="-96.989911" y="32.922234" type="priority"/>
    <node id="55103" x="-96.993540" y="32.922519" type="traffic_light" tl="55103"/>
    <node id="55104" x="-96.986571" y="32.921002" type="priority"/>
    <node id="55109" x="-96.994514" y="32.777838" type="traffic_light" tl="55109"/>
    <node id="55110" x="-96.974438" y="32.783049" type="priority"/>
    <node id="55119" x="-97.118315" y="33.046457" type="priority"/>
    <node id="55120" x="-97.127270" y="33.024169" type="priority"/>
    <node id="55125" x="-96.993626" y="32.912445" type="traffic_light" tl="55125"/>
    <node id="55126" x="-96.994664" y="32.748758" type="traffic_light" tl="55126"/>
    <node id="55134" x="-97.035706" y="32.758650" type="priority"/>
    <node id="55135" x="-96.974379" y="32.758504" type="dead_end"/>
    <node id="55136" x="-96.974675" y="32.760747" type="priority"/>
    <node id="55137" x="-97.024961" y="32.760424" type="priority"/>
    <node id="55138" x="-96.994817" y="32.754948" type="traffic_light" tl="55138"/>
    <node id="55139" x="-96.986013" y="32.756329" type="priority"/>
    <node id="55140" x="-97.002167" y="32.759017" type="priority"/>
    <node id="55141" x="-96.985584" y="32.758733" type="priority"/>
    <node id="55142" x="-96.994846" y="32.758166" type="traffic_light" tl="55142"/>
    <node id="55143" x="-96.989134" y="32.758283" type="priority"/>
    <node id="55144" x="-96.986517" y="32.759153" type="priority"/>
    <node id="55145" x="-96.994852" y="32.759094" type="traffic_light" tl="55145"/>
    <node id="55146" x="-96.982514" y="32.759132" type="priority"/>
    <node id="55147" x="-97.001314" y="32.759210" type="priority"/>
    <node id="55148" x="-96.975459" y="32.898640" type="priority"/>
    <node id="55149" x="-97.022268" y="32.923589" type="priority"/>
    <node id="55177" x="-96.947475" y="32.814476" type="priority"/>
    <node id="55178" x="-97.008145" y="32.817196" type="priority"/>
    <node id="55181" x="-96.987351" y="32.888720" type="priority"/>
    <node id="55182" x="-97.040476" y="32.904796" type="priority"/>
    <node id="55183" x="-96.959410" y="33.010467" type="priority"/>
    <node id="55184" x="-96.985790" y="33.046329" type="priority"/>
    <node id="55197" x="-96.984126" y="32.951129" type="priority"/>
    <node id="55198" x="-97.053976" y="32.933571" type="priority"/>
    <node id="55222" x="-97.073755" y="32.774540" type="traffic_light" tl="55222"/>
    <node id="55223" x="-97.073777" y="32.767162" type="traffic_light" tl="55223"/>
    <node id="55224" x="-97.043360" y="32.770444" type="priority"/>
    <node id="55225" x="-97.037160" y="32.765368" type="priority"/>
    <node id="55234" x="-97.122941" y="32.770137" type="traffic_light" tl="55234"/>
    <node id="55235" x="-97.122964" y="32.764835" type="traffic_light" tl="55235"/>
    <node id="55236" x="-97.083080" y="32.773192" type="traffic_light" tl="55236"/>
    <node id="55237" x="-97.081353" y="32.764495" type="priority"/>
    <node id="55238" x="-97.085343" y="32.771567" type="priority"/>
    <node id="55239" x="-97.085350" y="32.764504" type="priority"/>
    <node id="55240" x="-97.131310" y="32.779294" type="traffic_light" tl="55240"/>
    <node id="55241" x="-97.131510" y="32.764928" type="traffic_light" tl="55241"/>
    <node id="55244" x="-97.135277" y="32.778666" type="traffic_light" tl="55244"/>
    <node id="55245" x="-97.148306" y="32.766829" type="traffic_light" tl="55245"/>
    <node id="55246" x="-97.105074" y="32.772380" type="traffic_light" tl="55246"/>
    <node id="55247" x="-97.102543" y="32.764008" type="traffic_light" tl="55247"/>
    <node id="55290" x="-97.114283" y="32.772501" type="traffic_light" tl="55290"/>
    <node id="55291" x="-97.114402" y="32.760305" type="traffic_light" tl="55291"/>
    <node id="55312" x="-97.097106" y="32.769145" type="traffic_light" tl="55312"/>
    <node id="55313" x="-97.097160" y="32.765731" type="traffic_light" tl="55313"/>
    <node id="55341" x="-97.062602" y="32.767195" type="traffic_light" tl="55341"/>
    <node id="55342" x="-97.061815" y="32.773091" type="priority"/>
    <node id="55343" x="-97.062889" y="32.769372" type="priority"/>
    <node id="55344" x="-97.063170" y="32.767132" type="priority"/>
    <node id="55345" x="-97.063019" y="32.766929" type="priority"/>
    <node id="55346" x="-97.062796" y="32.768509" type="priority"/>
    <node id="55394" x="-97.062820" y="32.772556" type="priority"/>
    <node id="55395" x="-97.063503" y="32.767217" type="traffic_light" tl="55395"/>
    <node id="55403" x="-97.089488" y="32.769199" type="right_before_left"/>
    <node id="55404" x="-97.089696" y="32.764635" type="priority"/>
    <node id="55411" x="-97.027045" y="32.770220" type="traffic_light" tl="55411"/>
    <node id="55412" x="-97.019768" y="32.764178" type="traffic_light" tl="55412"/>
    <node id="55418" x="-97.028427" y="32.764255" type="traffic_light" tl="55418"/>
    <node id="55419" x="-97.028161" y="32.769897" type="priority"/>
    <node id="55420" x="-97.029890" y="32.765386" type="traffic_light" tl="55420"/>
    <node id="55421" x="-97.028109" y="32.768610" type="priority"/>
    <node id="55422" x="-97.026866" y="32.759233" type="priority"/>
    <node id="55423" x="-97.029315" y="32.762818" type="priority"/>
    <node id="55424" x="-97.028105" y="32.767725" type="priority"/>
    <node id="55425" x="-97.027262" y="32.773120" type="priority"/>
    <node id="55426" x="-96.994783" y="32.770010" type="traffic_light" tl="55426"/>
    <node id="55427" x="-96.994837" y="32.766783" type="traffic_light" tl="55427"/>
    <node id="55443" x="-97.221210" y="32.798016" type="priority"/>
    <node id="55470" x="-97.244177" y="32.847462" type="priority"/>
    <node id="55472" x="-97.078354" y="32.932700" type="traffic_light" tl="55472"/>
    <node id="55473" x="-97.290554" y="32.818891" type="priority"/>
    <node id="59798" x="-97.062983" y="32.762079" type="traffic_light" tl="59798"/>
    <node id="59799" x="-97.055631" y="32.762067" type="priority"/>
    <node id="59835" x="-97.062917" y="32.756629" type="priority"/>
    <node id="59836" x="-97.054253" y="32.756586" type="priority"/>
    <node id="59846" x="-97.054289" y="32.748903" type="traffic_light" tl="59846"/>
    <node id="59849" x="-97.059862" y="32.766909" type="priority"/>
    <node id="59850" x="-97.045752" y="32.767164" type="priority"/>
    <node id="59851" x="-97.056781" y="32.759718" type="priority"/>
    <node id="59852" x="-97.059138" y="32.757907" type="priority"/>
    <node id="59853" x="-97.061732" y="32.759750" type="priority"/>
    <node id="59854" x="-97.061098" y="32.759547" type="priority"/>
    <node id="59855" x="-97.055998" y="32.759486" type="priority"/>
    <node id="59869" x="-97.054936" y="32.759484" type="priority"/>
    <node id="59876" x="-97.059076" y="32.761143" type="priority"/>
    <node id="59881" x="-97.081162" y="32.758680" type="priority"/>
    <node id="59882" x="-97.053862" y="32.758575" type="priority"/>
    <node id="59897" x="-97.053750" y="32.760592" type="priority"/>
    <node id="59898" x="-97.081076" y="32.760887" type="priority"/>
    <node id="60006" x="-97.097225" y="32.755559" type="traffic_light" tl="60006"/>
    <node id="60007" x="-97.088621" y="32.755491" type="traffic_light" tl="60007"/>
    <node id="60045" x="-97.093748" y="32.759066" type="priority"/>
    <node id="60046" x="-97.085420" y="32.759426" type="priority"/>
    <node id="60047" x="-97.092216" y="32.759077" type="priority"/>
    <node id="60048" x="-97.088556" y="32.759103" type="traffic_light" tl="60048"/>
    <node id="60049" x="-97.091124" y="32.759774" type="priority"/>
    <node id="60050" x="-97.094977" y="32.759991" type="priority"/>
    <node id="60051" x="-97.087260" y="32.760122" type="priority"/>
    <node id="60052" x="-97.100809" y="32.759827" type="priority"/>
    <node id="60053" x="-97.087490" y="32.759789" type="priority"/>
    <node id="60054" x="-97.092266" y="32.760146" type="priority"/>
    <node id="60055" x="-97.095530" y="32.759588" type="priority"/>
    <node id="60056" x="-97.080546" y="32.759546" type="priority"/>
    <node id="60059" x="-97.097802" y="32.760894" type="priority"/>
    <node id="60060" x="-97.105466" y="32.758715" type="dead_end"/>
    <node id="60087" x="-97.102320" y="32.757072" type="traffic_light" tl="60087"/>
    <node id="60093" x="-97.110505" y="32.760683" type="traffic_light" tl="60093"/>
    <node id="60094" x="-97.105720" y="32.762768" type="traffic_light" tl="60094"/>
    <node id="60099" x="-97.108854" y="32.759604" type="dead_end"/>
    <node id="60100" x="-97.099459" y="32.759605" type="priority"/>
    <node id="60101" x="-97.103308" y="32.760246" type="priority"/>
    <node id="60102" x="-97.108619" y="32.759839" type="dead_end"/>
    <node id="60104" x="-97.105267" y="32.759278" type="dead_end"/>
    <node id="60105" x="-97.105418" y="32.759835" type="dead_end"/>
    <node id="60130" x="-97.097101" y="32.760121" type="traffic_light" tl="60130"/>
    <node id="60131" x="-97.097129" y="32.759048" type="traffic_light" tl="60131"/>
    <node id="60132" x="-97.101854" y="32.760240" type="traffic_light" tl="60132"/>
    <node id="60133" x="-97.101883" y="32.759199" type="traffic_light" tl="60133"/>
    <node id="60134" x="-97.102336" y="32.760063" type="priority"/>
    <node id="60135" x="-97.099617" y="32.759196" type="priority"/>
    <node id="60136" x="-97.103087" y="32.759425" type="priority"/>
    <node id="60137" x="-97.101842" y="32.761566" type="traffic_light" tl="60137"/>
    <node id="60138" x="-97.097070" y="32.763357" type="traffic_light" tl="60138"/>
    <node id="60139" x="-97.094693" y="32.760132" type="priority"/>
    <node id="60140" x="-97.097115" y="32.764547" type="priority"/>
    <node id="60184" x="-97.074563" y="32.764124" type="priority"/>
    <node id="60185" x="-97.075544" y="32.762804" type="traffic_light" tl="60185"/>
    <node id="60186" x="-97.063845" y="32.762089" type="traffic_light" tl="60186"/>
    <node id="60187" x="-97.080917" y="32.752390" type="traffic_light" tl="60187"/>
    <node id="60189" x="-97.067970" y="32.752489" type="traffic_light" tl="60189"/>
    <node id="60190" x="-97.068727" y="32.748032" type="traffic_light" tl="60190"/>
    <node id="60194" x="-97.075007" y="32.752490" type="traffic_light" tl="60194"/>
    <node id="60195" x="-97.088157" y="32.752721" type="priority"/>
    <node id="60198" x="-97.079677" y="32.759378" type="priority"/>
    <node id="60199" x="-97.075177" y="32.759237" type="priority"/>
    <node id="60200" x="-97.075836" y="32.759292" type="priority"/>
    <node id="60201" x="-97.063492" y="32.752507" type="priority"/>
    <node id="60202" x="-97.063106" y="32.748935" type="dead_end"/>
    <node id="60203" x="-97.062612" y="32.749405" type="dead_end"/>
    <node id="60204" x="-97.062924" y="32.752706" type="priority"/>
    <node id="60205" x="-97.063831" y="32.756085" type="priority"/>
    <node id="60206" x="-97.063091" y="32.751429" type="priority"/>
    <node id="60207" x="-97.074442" y="32.759779" type="priority"/>
    <node id="60208" x="-97.077354" y="32.759932" type="priority"/>
    <node id="60209" x="-97.077625" y="32.756883" type="priority"/>
    <node id="60210" x="-97.073713" y="32.759192" type="priority"/>
    <node id="60211" x="-97.062202" y="32.748932" type="dead_end"/>
    <node id="60212" x="-97.062892" y="32.755970" type="traffic_light" tl="60212"/>
    <node id="60213" x="-97.076530" y="32.759560" type="priority"/>
    <node id="60214" x="-97.073222" y="32.759561" type="priority"/>
    <node id="60215" x="-97.083560" y="32.759781" type="priority"/>
    <node id="60216" x="-97.076060" y="32.757914" type="priority"/>
    <node id="60217" x="-97.064670" y="32.757445" type="traffic_light" tl="60217"/>
    <node id="60218" x="-97.063146" y="32.752328" type="priority"/>
    <node id="60222" x="-97.085345" y="32.763603" type="traffic_light" tl="60222"/>
    <node id="60223" x="-97.081378" y="32.763010" type="traffic_light" tl="60223"/>
    <node id="60224" x="-97.075920" y="32.761135" type="traffic_light" tl="60224"/>
    <node id="60225" x="-97.085381" y="32.760114" type="traffic_light" tl="60225"/>
    <node id="60226" x="-97.085324" y="32.759655" type="traffic_light" tl="60226"/>
    <node id="60227" x="-97.076004" y="32.760604" type="priority"/>
    <node id="60228" x="-97.079799" y="32.756084" type="traffic_light" tl="60228"/>
    <node id="60229" x="-97.085255" y="32.759094" type="traffic_light" tl="60229"/>
    <node id="60230" x="-97.080199" y="32.759054" type="traffic_light" tl="60230"/>
    <node id="60231" x="-97.078990" y="32.760147" type="priority"/>
    <node id="60232" x="-97.086958" y="32.755469" type="priority"/>
    <node id="60233" x="-97.085763" y="32.754030" type="traffic_light" tl="60233"/>
    <node id="60234" x="-97.078753" y="32.756563" type="priority"/>
    <node id="60235" x="-97.076653" y="32.761042" type="priority"/>
    <node id="60238" x="-97.062867" y="32.749505" type="dead_end"/>
    <node id="60250" x="-97.067911" y="32.767367" type="traffic_light" tl="60250"/>
    <node id="60251" x="-97.073289" y="32.759774" type="priority"/>
    <node id="60252" x="-97.070411" y="32.759565" type="priority"/>
    <node id="60253" x="-97.062945" y="32.757912" type="traffic_light" tl="60253"/>
    <node id="60254" x="-97.063062" y="32.759925" type="priority"/>
    <node id="60255" x="-97.063461" y="32.757956" type="priority"/>
    <node id="60256" x="-97.063801" y="32.761306" type="priority"/>
    <node id="60257" x="-97.063250" y="32.757713" type="priority"/>
    <node id="60258" x="-97.063841" y="32.757720" type="traffic_light" tl="60258"/>
    <node id="60259" x="-97.062964" y="32.753326" type="priority"/>
    <node id="60260" x="-97.062922" y="32.757281" type="priority"/>
    <node id="60261" x="-97.063864" y="32.756723" type="priority"/>
    <node id="60262" x="-97.063806" y="32.763329" type="priority"/>
    <node id="60263" x="-97.062965" y="32.762917" type="priority"/>
    <node id="60264" x="-97.061358" y="32.767223" type="priority"/>
    <node id="60390" x="-97.042610" y="32.760512" type="priority"/>
    <node id="60398" x="-97.024352" y="32.747160" type="dead_end"/>
    <node id="60399" x="-97.025460" y="32.747400" type="dead_end"/>
    <node id="60412" x="-97.028432" y="32.752825" type="priority"/>
    <node id="60413" x="-97.022230" y="32.752950" type="traffic_light" tl="60413"/>
    <node id="60414" x="-97.027828" y="32.750451" type="traffic_light" tl="60414"/>
    <node id="60415" x="-97.022427" y="32.748804" type="priority"/>
    <node id="60418" x="-97.028417" y="32.757090" type="traffic_light" tl="60418"/>
    <node id="60419" x="-97.021530" y="32.758354" type="priority"/>
    <node id="60420" x="-97.020638" y="32.759329" type="priority"/>
    <node id="60421" x="-97.028516" y="32.759042" type="traffic_light" tl="60421"/>
    <node id="60422" x="-97.024705" y="32.759286" type="priority"/>
    <node id="60423" x="-97.023012" y="32.746681" type="dead_end"/>
    <node id="60424" x="-97.028309" y="32.749407" type="dead_end"/>
    <node id="60426" x="-97.032158" y="32.759417" type="priority"/>
    <node id="60427" x="-97.024460" y="32.759607" type="priority"/>
    <node id="60428" x="-97.028399" y="32.759631" type="priority"/>
    <node id="60429" x="-97.028866" y="32.751239" type="priority"/>
    <node id="60430" x="-97.028216" y="32.750764" type="priority"/>
    <node id="60431" x="-97.028746" y="32.764314" type="priority"/>
    <node id="60432" x="-97.024446" y="32.759801" type="priority"/>
    <node id="60433" x="-97.029306" y="32.753690" type="priority"/>
    <node id="60434" x="-97.028469" y="32.759957" type="traffic_light" tl="60434"/>
    <node id="60447" x="-97.045581" y="32.762112" type="priority"/>
    <node id="60448" x="-97.037126" y="32.761395" type="priority"/>
    <node id="60449" x="-97.037081" y="32.757099" type="traffic_light" tl="60449"/>
    <node id="60450" x="-97.036387" y="32.750666" type="priority"/>
    <node id="60451" x="-97.045692" y="32.748850" type="traffic_light" tl="60451"/>
    <node id="60452" x="-97.040124" y="32.750719" type="priority"/>
    <node id="60454" x="-97.040405" y="32.744716" type="priority"/>
    <node id="60457" x="-97.045717" y="32.756491" type="traffic_light" tl="60457"/>
    <node id="60458" x="-97.037496" y="32.759636" type="priority"/>
    <node id="60459" x="-97.043487" y="32.759653" type="priority"/>
    <node id="60460" x="-97.044569" y="32.758647" type="priority"/>
    <node id="60461" x="-97.045177" y="32.759442" type="priority"/>
    <node id="60462" x="-97.037704" y="32.759438" type="priority"/>
    <node id="60463" x="-97.028467" y="32.755209" type="priority"/>
    <node id="60464" x="-97.029958" y="32.755031" type="priority"/>
    <node id="60465" x="-97.029254" y="32.750745" type="traffic_light" tl="60465"/>
    <node id="60466" x="-97.028906" y="32.752792" type="priority"/>
    <node id="60469" x="-97.052479" y="32.759704" type="priority"/>
    <node id="60470" x="-97.052501" y="32.759471" type="priority"/>