<?xml version="1.0" encoding="UTF-8"?>

<!-- generated on Tue Feb 12 11:21:17 2019 by Eclipse SUMO netconvert Version v1_1_0+0090-23cbd8772d
<configuration xmlns:xsi="http://www.w3.org/2001/XMLSchema-instance" xsi:noNamespaceSchemaLocation="http://sumo.dlr.de/xsd/netconvertConfiguration.xsd">

    <input>
        <sumo-net-file value="net.net.xml"/>
    </input>

    <output>
        <plain-output-prefix value="dfw"/>
    </output>

    <projection>
        <proj.plain-geo value="true"/>
    </projection>

    <processing>
        <geometry.max-grade.fix value="false"/>
        <offset.disable-normalization value="true"/>
        <lefthand value="false"/>
    </processing>

    <junctions>
        <no-turnarounds value="true"/>
        <junctions.corner-detail value="5"/>
        <junctions.limit-turn-speed value="5.5"/>
        <rectangular-lane-cut value="false"/>
    </junctions>

    <pedestrian>
        <walkingareas value="false"/>
    </pedestrian>

</configuration>
-->

<connections version="1.1" xmlns:xsi="http://www.w3.org/2001/XMLSchema-instance" xsi:noNamespaceSchemaLocation="http://sumo.dlr.de/xsd/connections_file.xsd">
    <connection from="-101172" to="101011" fromLane="0" toLane="0"/>
    <connection from="-101172" to="-86891" fromLane="1" toLane="2"/>
    <connection from="-101172" to="-86891" fromLane="1" toLane="3"/>
    <connection from="-101172" to="101172" fromLane="1" toLane="1"/>

    <connection from="-101203" to="87705" fromLane="0" toLane="0"/>
    <connection from="-101203" to="-79735" fromLane="0" toLane="0"/>
    <connection from="-101203" to="-79735" fromLane="1" toLane="1"/>
    <connection from="-101203" to="101203" fromLane="1" toLane="1"/>

    <connection from="-101248" to="-79343" fromLane="0" toLane="0"/>
    <connection from="-101248" to="-79343" fromLane="0" toLane="1"/>
    <connection from="-101248" to="-104833" fromLane="0" toLane="0"/>
    <connection from="-101248" to="-104833" fromLane="1" toLane="1"/>
    <connection from="-101248" to="101248" fromLane="1" toLane="1"/>

    <connection from="-101412" to="-96070" fromLane="0" toLane="0"/>
    <connection from="-101412" to="-96070" fromLane="0" toLane="1"/>
    <connection from="-101412" to="-96070" fromLane="0" toLane="2"/>
    <connection from="-101412" to="-96070" fromLane="0" toLane="3"/>
    <connection from="-101412" to="83282" fromLane="1" toLane="3"/>
    <connection from="-101412" to="83282" fromLane="1" toLane="4"/>
    <connection from="-101412" to="83282" fromLane="1" toLane="5"/>
    <connection from="-101412" to="101412" fromLane="1" toLane="1"/>

    <connection from="-101424" to="-86928" fromLane="0" toLane="0"/>
    <connection from="-101424" to="-86928" fromLane="1" toLane="1"/>
    <connection from="-101424" to="-86928" fromLane="1" toLane="2"/>
    <connection from="-101424" to="-86928" fromLane="1" toLane="3"/>
    <connection from="-101424" to="101424" fromLane="1" toLane="1"/>

    <connection from="-101425" to="86928" fromLane="0" toLane="0"/>
    <connection from="-101425" to="-95803" fromLane="0" toLane="2"/>
    <connection from="-101425" to="-95803" fromLane="1" toLane="3"/>
    <connection from="-101425" to="101425" fromLane="1" toLane="1"/>

    <connection from="-101477" to="101476" fromLane="0" toLane="0"/>
    <connection from="-101477" to="101476" fromLane="1" toLane="1"/>
    <connection from="-101477" to="101476" fromLane="2" toLane="2"/>
    <connection from="-101477" to="101477" fromLane="3" toLane="3"/>

    <connection from="-101487" to="-83218" fromLane="0" toLane="0"/>
    <connection from="-101487" to="-83218" fromLane="1" toLane="1"/>
    <connection from="-101487" to="-83218" fromLane="2" toLane="2"/>
    <connection from="-101487" to="-83218" fromLane="3" toLane="3"/>
    <connection from="-101487" to="101488" fromLane="4" toLane="0"/>
    <connection from="-101487" to="101488" fromLane="5" toLane="1"/>
    <connection from="-101487" to="101487" fromLane="5" toLane="5"/>

    <connection from="-101498" to="101446" fromLane="0" toLane="0"/>
    <connection from="-101498" to="101498" fromLane="1" toLane="1"/>

    <connection from="-104833" to="104832" fromLane="0" toLane="0"/>
    <connection from="-104833" to="104832" fromLane="1" toLane="1"/>
    <connection from="-104833" to="104833" fromLane="1" toLane="1"/>

    <connection from="-106351" to="-118142" fromLane="0" toLane="0"/>
    <connection from="-106351" to="-118495" fromLane="0" toLane="0"/>
    <connection from="-106351" to="-119976" fromLane="0" toLane="0"/>
    <connection from="-106351" to="-119976" fromLane="1" toLane="1"/>
    <connection from="-106351" to="118126" fromLane="1" toLane="1"/>
    <connection from="-106351" to="-99876" fromLane="1" toLane="1"/>
    <connection from="-106351" to="106351" fromLane="1" toLane="1"/>

    <connection from="-106443" to="-106795" fromLane="0" toLane="0"/>
    <connection from="-106443" to="-87889" fromLane="0" toLane="0"/>
    <connection from="-106443" to="-87889" fromLane="1" toLane="1"/>
    <connection from="-106443" to="-87889" fromLane="2" toLane="2"/>
    <connection from="-106443" to="-87889" fromLane="3" toLane="3"/>
    <connection from="-106443" to="87891" fromLane="3" toLane="3"/>
    <connection from="-106443" to="106443" fromLane="3" toLane="3"/>

    <connection from="-106445" to="112201" fromLane="0" toLane="0"/>
    <connection from="-106445" to="112201" fromLane="1" toLane="1"/>
    <connection from="-106445" to="106445" fromLane="3" toLane="3"/>

    <connection from="-106700" to="108524" fromLane="0" toLane="0"/>
    <connection from="-106700" to="108524" fromLane="1" toLane="1"/>
    <connection from="-106700" to="108524" fromLane="1" toLane="2"/>
    <connection from="-106700" to="108524" fromLane="1" toLane="3"/>
    <connection from="-106700" to="108524" fromLane="1" toLane="4"/>
    <connection from="-106700" to="108524" fromLane="1" toLane="5"/>
    <connection from="-106700" to="106700" fromLane="1" toLane="1"/>

    <connection from="-106702" to="106702" fromLane="3" toLane="3"/>

    <connection from="-106795" to="82863" fromLane="0" toLane="0"/>
    <connection from="-106795" to="82863" fromLane="0" toLane="1"/>
    <connection from="-106795" to="-82860" fromLane="0" toLane="0"/>
    <connection from="-106795" to="-82860" fromLane="1" toLane="1"/>
    <connection from="-106795" to="-82860" fromLane="2" toLane="2"/>
    <connection from="-106795" to="-82860" fromLane="3" toLane="3"/>
    <connection from="-106795" to="-82861" fromLane="3" toLane="4"/>
    <connection from="-106795" to="-82861" fromLane="3" toLane="5"/>
    <connection from="-106795" to="106795" fromLane="3" toLane="3"/>

    <connection from="-106893" to="-83277" fromLane="0" toLane="0"/>
    <connection from="-106893" to="-109772" fromLane="0" toLane="0"/>
    <connection from="-106893" to="-109772" fromLane="1" toLane="1"/>
    <connection from="-106893" to="-109772" fromLane="2" toLane="2"/>
    <connection from="-106893" to="-109772" fromLane="3" toLane="3"/>
    <connection from="-106893" to="-109772" fromLane="4" toLane="4"/>
    <connection from="-106893" to="-109772" fromLane="5" toLane="5"/>
    <connection from="-106893" to="83311" fromLane="5" toLane="1"/>
    <connection from="-106893" to="106893" fromLane="5" toLane="5"/>

    <connection from="-106916" to="-94951" fromLane="0" toLane="0"/>
    <connection from="-106916" to="-94951" fromLane="1" toLane="1"/>
    <connection from="-106916" to="83647" fromLane="1" toLane="1"/>
    <connection from="-106916" to="106916" fromLane="1" toLane="1"/>

    <connection from="-106917" to="-106916" fromLane="0" toLane="0"/>
    <connection from="-106917" to="-106916" fromLane="1" toLane="1"/>
    <connection from="-106917" to="106917" fromLane="1" toLane="1"/>

    <connection from="-106924" to="107884" fromLane="0" toLane="0"/>
    <connection from="-106924" to="-106925" fromLane="0" toLane="0"/>
    <connection from="-106924" to="-106925" fromLane="1" toLane="1"/>
    <connection from="-106924" to="-106925" fromLane="2" toLane="2"/>
    <connection from="-106924" to="-106925" fromLane="3" toLane="3"/>
    <connection from="-106924" to="-106925" fromLane="4" toLane="4"/>
    <connection from="-106924" to="119975" fromLane="4" toLane="1"/>
    <connection from="-106924" to="-119972" fromLane="5" toLane="1"/>
    <connection from="-106924" to="106924" fromLane="5" toLane="5"/>

    <connection from="-106925" to="115579" fromLane="0" toLane="0"/>
    <connection from="-106925" to="115579" fromLane="1" toLane="1"/>
    <connection from="-106925" to="115579" fromLane="2" toLane="2"/>
    <connection from="-106925" to="115579" fromLane="3" toLane="3"/>
    <connection from="-106925" to="115579" fromLane="3" toLane="4"/>
    <connection from="-106925" to="-107900" fromLane="4" toLane="2"/>
    <connection from="-106925" to="-107900" fromLane="5" toLane="3"/>
    <connection from="-106925" to="106925" fromLane="5" toLane="5"/>

    <connection from="-106947" to="87369" fromLane="0" toLane="0"/>
    <connection from="-106947" to="-87366" fromLane="0" toLane="0"/>
    <connection from="-106947" to="-87366" fromLane="1" toLane="1"/>
    <connection from="-106947" to="-83032" fromLane="1" toLane="1"/>
    <connection from="-106947" to="106947" fromLane="1" toLane="1"/>

    <connection from="-106979" to="108194" fromLane="0" toLane="0"/>
    <connection from="-106979" to="-86944" fromLane="0" toLane="0"/>
    <connection from="-106979" to="-86944" fromLane="1" toLane="1"/>
    <connection from="-106979" to="-86944" fromLane="2" toLane="2"/>
    <connection from="-106979" to="-86944" fromLane="3" toLane="3"/>
    <connection from="-106979" to="-86944" fromLane="4" toLane="4"/>
    <connection from="-106979" to="106979" fromLane="4" toLane="4"/>

    <connection from="-107051" to="-86940" fromLane="0" toLane="0"/>
    <connection from="-107051" to="-86940" fromLane="1" toLane="1"/>
    <connection from="-107051" to="-86940" fromLane="2" toLane="2"/>
    <connection from="-107051" to="-86940" fromLane="3" toLane="3"/>
    <connection from="-107051" to="-86940" fromLane="4" toLane="4"/>
    <connection from="-107051" to="107051" fromLane="5" toLane="5"/>

    <connection from="-107198" to="107199" fromLane="0" toLane="0"/>
    <connection from="-107198" to="-107812" fromLane="0" toLane="0"/>
    <connection from="-107198" to="-107812" fromLane="1" toLane="1"/>
    <connection from="-107198" to="-107812" fromLane="2" toLane="2"/>
    <connection from="-107198" to="-107812" fromLane="3" toLane="3"/>
    <connection from="-107198" to="-107812" fromLane="4" toLane="4"/>
    <connection from="-107198" to="-107812" fromLane="5" toLane="5"/>
    <connection from="-107198" to="118491" fromLane="5" toLane="1"/>
    <connection from="-107198" to="107198" fromLane="5" toLane="5"/>

    <connection from="-107199" to="-107812" fromLane="0" toLane="0"/>
    <connection from="-107199" to="-107812" fromLane="0" toLane="1"/>
    <connection from="-107199" to="118491" fromLane="0" toLane="0"/>
    <connection from="-107199" to="118491" fromLane="1" toLane="1"/>
    <connection from="-107199" to="107198" fromLane="2" toLane="4"/>
    <connection from="-107199" to="107198" fromLane="3" toLane="5"/>
    <connection from="-107199" to="107199" fromLane="3" toLane="3"/>

    <connection from="-107282" to="-84215" fromLane="0" toLane="0"/>
    <connection from="-107282" to="-84215" fromLane="1" toLane="1"/>
    <connection from="-107282" to="-84215" fromLane="2" toLane="2"/>
    <connection from="-107282" to="-84215" fromLane="3" toLane="3"/>
    <connection from="-107282" to="107282" fromLane="3" toLane="3"/>

    <connection from="-107807" to="87444" fromLane="0" toLane="0"/>
    <connection from="-107807" to="-87445" fromLane="0" toLane="0"/>
    <connection from="-107807" to="-87445" fromLane="1" toLane="1"/>
    <connection from="-107807" to="-87445" fromLane="2" toLane="2"/>
    <connection from="-107807" to="-87445" fromLane="3" toLane="3"/>
    <connection from="-107807" to="-87445" fromLane="4" toLane="4"/>
    <connection from="-107807" to="-87445" fromLane="5" toLane="5"/>
    <connection from="-107807" to="107807" fromLane="5" toLane="5"/>

    <connection from="-107808" to="-107199" fromLane="0" toLane="0"/>
    <connection from="-107808" to="-107199" fromLane="1" toLane="1"/>
    <connection from="-107808" to="-107199" fromLane="2" toLane="2"/>
    <connection from="-107808" to="-107199" fromLane="3" toLane="3"/>
    <connection from="-107808" to="107808" fromLane="3" toLane="3"/>

    <connection from="-107809" to="107811" fromLane="0" toLane="0"/>
    <connection from="-107809" to="-87442" fromLane="0" toLane="0"/>
    <connection from="-107809" to="-87442" fromLane="1" toLane="1"/>
    <connection from="-107809" to="-87442" fromLane="2" toLane="2"/>
    <connection from="-107809" to="-87442" fromLane="3" toLane="3"/>
    <connection from="-107809" to="107809" fromLane="3" toLane="3"/>

    <connection from="-107810" to="-107807" fromLane="0" toLane="2"/>
    <connection from="-107810" to="-107807" fromLane="1" toLane="3"/>
    <connection from="-107810" to="-107807" fromLane="2" toLane="4"/>
    <connection from="-107810" to="-107807" fromLane="3" toLane="5"/>
    <connection from="-107810" to="107815" fromLane="4" toLane="0"/>
    <connection from="-107810" to="107810" fromLane="5" toLane="5"/>

    <connection from="-107812" to="107813" fromLane="0" toLane="0"/>
    <connection from="-107812" to="107813" fromLane="1" toLane="1"/>
    <connection from="-107812" to="-107810" fromLane="4" toLane="0"/>
    <connection from="-107812" to="-107810" fromLane="5" toLane="1"/>
    <connection from="-107812" to="-107810" fromLane="5" toLane="2"/>
    <connection from="-107812" to="-107810" fromLane="5" toLane="3"/>
    <connection from="-107812" to="107812" fromLane="5" toLane="5"/>

    <connection from="-107819" to="112419" fromLane="0" toLane="0"/>
    <connection from="-107819" to="112419" fromLane="0" toLane="1"/>
    <connection from="-107819" to="-83360" fromLane="0" toLane="0"/>
    <connection from="-107819" to="-83360" fromLane="1" toLane="1"/>
    <connection from="-107819" to="107819" fromLane="1" toLane="1"/>

    <connection from="-107820" to="-88426" fromLane="0" toLane="0"/>
    <connection from="-107820" to="-88426" fromLane="1" toLane="1"/>
    <connection from="-107820" to="-88426" fromLane="2" toLane="2"/>
    <connection from="-107820" to="-88426" fromLane="3" toLane="3"/>
    <connection from="-107820" to="-112419" fromLane="3" toLane="2"/>
    <connection from="-107820" to="-112419" fromLane="3" toLane="3"/>
    <connection from="-107820" to="107820" fromLane="3" toLane="3"/>

    <connection from="-107825" to="-86644" fromLane="0" toLane="0"/>
    <connection from="-107825" to="-86644" fromLane="1" toLane="1"/>
    <connection from="-107825" to="79115" fromLane="2" toLane="1"/>
    <connection from="-107825" to="-118490" fromLane="3" toLane="1"/>
    <connection from="-107825" to="118489" fromLane="4" toLane="0"/>
    <connection from="-107825" to="118489" fromLane="5" toLane="1"/>
    <connection from="-107825" to="107825" fromLane="5" toLane="5"/>

    <connection from="-107826" to="-118072" fromLane="0" toLane="0"/>
    <connection from="-107826" to="-118072" fromLane="1" toLane="1"/>
    <connection from="-107826" to="-118072" fromLane="2" toLane="2"/>
    <connection from="-107826" to="-118072" fromLane="2" toLane="3"/>
    <connection from="-107826" to="-107825" fromLane="3" toLane="3"/>
    <connection from="-107826" to="-107825" fromLane="3" toLane="4"/>
    <connection from="-107826" to="-107825" fromLane="3" toLane="5"/>
    <connection from="-107826" to="107826" fromLane="3" toLane="3"/>

    <connection from="-107827" to="-118486" fromLane="0" toLane="0"/>
    <connection from="-107827" to="-86643" fromLane="0" toLane="1"/>
    <connection from="-107827" to="-86643" fromLane="1" toLane="2"/>
    <connection from="-107827" to="118492" fromLane="1" toLane="0"/>
    <connection from="-107827" to="-107808" fromLane="1" toLane="0"/>
    <connection from="-107827" to="-107808" fromLane="2" toLane="1"/>
    <connection from="-107827" to="-107808" fromLane="3" toLane="2"/>
    <connection from="-107827" to="-107808" fromLane="4" toLane="3"/>
    <connection from="-107827" to="83436" fromLane="4" toLane="4"/>
    <connection from="-107827" to="83436" fromLane="5" toLane="5"/>
    <connection from="-107827" to="-118487" fromLane="5" toLane="1"/>
    <connection from="-107827" to="107827" fromLane="5" toLane="5"/>

    <connection from="-107828" to="-107826" fromLane="0" toLane="0"/>
    <connection from="-107828" to="-118489" fromLane="0" toLane="0"/>
    <connection from="-107828" to="-118489" fromLane="1" toLane="1"/>
    <connection from="-107828" to="-107829" fromLane="2" toLane="2"/>
    <connection from="-107828" to="-107829" fromLane="3" toLane="3"/>
    <connection from="-107828" to="107828" fromLane="3" toLane="3"/>

    <connection from="-107829" to="-79116" fromLane="0" toLane="0"/>
    <connection from="-107829" to="-79116" fromLane="1" toLane="1"/>
    <connection from="-107829" to="-79116" fromLane="2" toLane="2"/>
    <connection from="-107829" to="-79116" fromLane="3" toLane="3"/>
    <connection from="-107829" to="107829" fromLane="3" toLane="3"/>

    <connection from="-107877" to="-107879" fromLane="0" toLane="0"/>
    <connection from="-107877" to="-107879" fromLane="1" toLane="1"/>
    <connection from="-107877" to="-107879" fromLane="2" toLane="2"/>
    <connection from="-107877" to="-107879" fromLane="3" toLane="3"/>
    <connection from="-107877" to="107877" fromLane="3" toLane="3"/>

    <connection from="-107878" to="-107877" fromLane="0" toLane="0"/>
    <connection from="-107878" to="-107877" fromLane="1" toLane="1"/>
    <connection from="-107878" to="-107877" fromLane="2" toLane="2"/>
    <connection from="-107878" to="-107877" fromLane="3" toLane="3"/>
    <connection from="-107878" to="107878" fromLane="3" toLane="3"/>

    <connection from="-107879" to="-107880" fromLane="0" toLane="0"/>
    <connection from="-107879" to="-107880" fromLane="1" toLane="1"/>
    <connection from="-107879" to="-107880" fromLane="2" toLane="2"/>
    <connection from="-107879" to="-107880" fromLane="3" toLane="3"/>
    <connection from="-107879" to="107879" fromLane="3" toLane="3"/>

    <connection from="-107880" to="-107881" fromLane="0" toLane="0"/>
    <connection from="-107880" to="-107881" fromLane="1" toLane="1"/>
    <connection from="-107880" to="-107881" fromLane="2" toLane="2"/>
    <connection from="-107880" to="-107881" fromLane="3" toLane="3"/>
    <connection from="-107880" to="107880" fromLane="3" toLane="3"/>

    <connection from="-107881" to="106273" fromLane="0" toLane="0"/>
    <connection from="-107881" to="-107882" fromLane="0" toLane="0"/>
    <connection from="-107881" to="-107882" fromLane="1" toLane="1"/>
    <connection from="-107881" to="-107882" fromLane="2" toLane="2"/>
    <connection from="-107881" to="-107882" fromLane="3" toLane="3"/>
    <connection from="-107881" to="107881" fromLane="3" toLane="3"/>

    <connection from="-107882" to="-107883" fromLane="0" toLane="0"/>
    <connection from="-107882" to="-107883" fromLane="1" toLane="1"/>
    <connection from="-107882" to="-107883" fromLane="2" toLane="2"/>
    <connection from="-107882" to="-107883" fromLane="3" toLane="3"/>
    <connection from="-107882" to="99875" fromLane="3" toLane="1"/>
    <connection from="-107882" to="107882" fromLane="3" toLane="3"/>

    <connection from="-107883" to="-115673" fromLane="0" toLane="0"/>
    <connection from="-107883" to="-115673" fromLane="0" toLane="1"/>
    <connection from="-107883" to="-115674" fromLane="0" toLane="0"/>
    <connection from="-107883" to="-115674" fromLane="1" toLane="1"/>
    <connection from="-107883" to="-115674" fromLane="2" toLane="2"/>
    <connection from="-107883" to="-115674" fromLane="3" toLane="3"/>
    <connection from="-107883" to="107883" fromLane="3" toLane="3"/>

    <connection from="-107884" to="-106925" fromLane="0" toLane="0"/>
    <connection from="-107884" to="119975" fromLane="0" toLane="0"/>
    <connection from="-107884" to="119975" fromLane="1" toLane="1"/>
    <connection from="-107884" to="-119972" fromLane="2" toLane="0"/>
    <connection from="-107884" to="-119972" fromLane="3" toLane="1"/>
    <connection from="-107884" to="106924" fromLane="3" toLane="4"/>
    <connection from="-107884" to="106924" fromLane="3" toLane="5"/>
    <connection from="-107884" to="107884" fromLane="3" toLane="3"/>

    <connection from="-107885" to="-107884" fromLane="0" toLane="0"/>
    <connection from="-107885" to="-107884" fromLane="1" toLane="1"/>
    <connection from="-107885" to="-107884" fromLane="2" toLane="2"/>
    <connection from="-107885" to="-107884" fromLane="3" toLane="3"/>
    <connection from="-107885" to="83238" fromLane="3" toLane="1"/>
    <connection from="-107885" to="107885" fromLane="3" toLane="3"/>

    <connection from="-107886" to="-107887" fromLane="0" toLane="0"/>
    <connection from="-107886" to="83362" fromLane="0" toLane="0"/>
    <connection from="-107886" to="83362" fromLane="1" toLane="1"/>
    <connection from="-107886" to="83362" fromLane="2" toLane="2"/>
    <connection from="-107886" to="83362" fromLane="3" toLane="3"/>
    <connection from="-107886" to="107886" fromLane="3" toLane="3"/>

    <connection from="-107887" to="115623" fromLane="0" toLane="0"/>
    <connection from="-107887" to="-115654" fromLane="0" toLane="1"/>
    <connection from="-107887" to="-115654" fromLane="1" toLane="2"/>
    <connection from="-107887" to="-115654" fromLane="1" toLane="3"/>
    <connection from="-107887" to="-115636" fromLane="1" toLane="3"/>
    <connection from="-107887" to="107887" fromLane="1" toLane="1"/>

    <connection from="-107888" to="-106924" fromLane="0" toLane="0"/>
    <connection from="-107888" to="-106924" fromLane="0" toLane="1"/>
    <connection from="-107888" to="-96173" fromLane="0" toLane="0"/>
    <connection from="-107888" to="-96173" fromLane="1" toLane="1"/>
    <connection from="-107888" to="83227" fromLane="2" toLane="4"/>
    <connection from="-107888" to="83227" fromLane="3" toLane="5"/>
    <connection from="-107888" to="107888" fromLane="3" toLane="3"/>

    <connection from="-107889" to="83270" fromLane="0" toLane="0"/>
    <connection from="-107889" to="-107888" fromLane="0" toLane="0"/>
    <connection from="-107889" to="-107888" fromLane="1" toLane="1"/>
    <connection from="-107889" to="-107888" fromLane="2" toLane="2"/>
    <connection from="-107889" to="-107888" fromLane="3" toLane="3"/>
    <connection from="-107889" to="107889" fromLane="3" toLane="3"/>

    <connection from="-107890" to="-107889" fromLane="0" toLane="0"/>
    <connection from="-107890" to="-87757" fromLane="0" toLane="0"/>
    <connection from="-107890" to="-87757" fromLane="1" toLane="1"/>
    <connection from="-107890" to="-87757" fromLane="2" toLane="2"/>
    <connection from="-107890" to="-87757" fromLane="3" toLane="3"/>
    <connection from="-107890" to="120223" fromLane="3" toLane="3"/>
    <connection from="-107890" to="107890" fromLane="3" toLane="3"/>

    <connection from="-107891" to="-107892" fromLane="0" toLane="0"/>
    <connection from="-107891" to="-107890" fromLane="0" toLane="0"/>
    <connection from="-107891" to="-107890" fromLane="1" toLane="1"/>
    <connection from="-107891" to="-107890" fromLane="2" toLane="2"/>
    <connection from="-107891" to="-107890" fromLane="3" toLane="3"/>
    <connection from="-107891" to="107891" fromLane="3" toLane="3"/>

    <connection from="-107892" to="83292" fromLane="0" toLane="0"/>
    <connection from="-107892" to="-107893" fromLane="0" toLane="0"/>
    <connection from="-107892" to="-107893" fromLane="1" toLane="1"/>
    <connection from="-107892" to="107892" fromLane="1" toLane="1"/>

    <connection from="-107893" to="-94909" fromLane="0" toLane="0"/>
    <connection from="-107893" to="-94909" fromLane="1" toLane="1"/>
    <connection from="-107893" to="107893" fromLane="1" toLane="1"/>

    <connection from="-107894" to="83335" fromLane="0" toLane="0"/>
    <connection from="-107894" to="-115488" fromLane="0" toLane="0"/>
    <connection from="-107894" to="-115488" fromLane="1" toLane="1"/>
    <connection from="-107894" to="-115488" fromLane="2" toLane="2"/>
    <connection from="-107894" to="-115488" fromLane="3" toLane="3"/>
    <connection from="-107894" to="-115487" fromLane="3" toLane="1"/>
    <connection from="-107894" to="107894" fromLane="3" toLane="3"/>

    <connection from="-107895" to="109146" fromLane="0" toLane="0"/>
    <connection from="-107895" to="-109147" fromLane="1" toLane="0"/>
    <connection from="-107895" to="-109147" fromLane="2" toLane="1"/>
    <connection from="-107895" to="-109147" fromLane="3" toLane="2"/>
    <connection from="-107895" to="-109147" fromLane="4" toLane="3"/>
    <connection from="-107895" to="107895" fromLane="5" toLane="5"/>

    <connection from="-107896" to="87357" fromLane="0" toLane="0"/>
    <connection from="-107896" to="87357" fromLane="0" toLane="1"/>
    <connection from="-107896" to="-107895" fromLane="0" toLane="1"/>
    <connection from="-107896" to="-107895" fromLane="1" toLane="2"/>
    <connection from="-107896" to="-107895" fromLane="2" toLane="3"/>
    <connection from="-107896" to="-107895" fromLane="3" toLane="4"/>
    <connection from="-107896" to="-107895" fromLane="3" toLane="5"/>
    <connection from="-107896" to="-112592" fromLane="3" toLane="4"/>
    <connection from="-107896" to="-112592" fromLane="3" toLane="5"/>
    <connection from="-107896" to="107896" fromLane="3" toLane="3"/>

    <connection from="-107897" to="107898" fromLane="0" toLane="0"/>
    <connection from="-107897" to="107898" fromLane="0" toLane="1"/>
    <connection from="-107897" to="-107896" fromLane="1" toLane="2"/>
    <connection from="-107897" to="-107896" fromLane="1" toLane="3"/>
    <connection from="-107897" to="107897" fromLane="1" toLane="1"/>

    <connection from="-107898" to="-107896" fromLane="0" toLane="0"/>
    <connection from="-107898" to="-107896" fromLane="1" toLane="1"/>
    <connection from="-107898" to="-107896" fromLane="2" toLane="2"/>
    <connection from="-107898" to="-107896" fromLane="3" toLane="3"/>
    <connection from="-107898" to="107897" fromLane="3" toLane="1"/>
    <connection from="-107898" to="107898" fromLane="3" toLane="3"/>

    <connection from="-107899" to="-107897" fromLane="0" toLane="0"/>
    <connection from="-107899" to="-96172" fromLane="1" toLane="0"/>
    <connection from="-107899" to="-96172" fromLane="2" toLane="1"/>
    <connection from="-107899" to="107899" fromLane="3" toLane="3"/>

    <connection from="-107900" to="-107898" fromLane="0" toLane="0"/>
    <connection from="-107900" to="-107898" fromLane="1" toLane="1"/>
    <connection from="-107900" to="-107898" fromLane="2" toLane="2"/>
    <connection from="-107900" to="-107898" fromLane="3" toLane="3"/>
    <connection from="-107900" to="-107899" fromLane="3" toLane="2"/>
    <connection from="-107900" to="-107899" fromLane="3" toLane="3"/>
    <connection from="-107900" to="107900" fromLane="3" toLane="3"/>

    <connection from="-107901" to="-107907" fromLane="0" toLane="0"/>
    <connection from="-107901" to="-107907" fromLane="0" toLane="1"/>
    <connection from="-107901" to="-115600" fromLane="0" toLane="1"/>
    <connection from="-107901" to="-115600" fromLane="1" toLane="2"/>
    <connection from="-107901" to="-115600" fromLane="2" toLane="3"/>
    <connection from="-107901" to="-115600" fromLane="3" toLane="4"/>
    <connection from="-107901" to="-115600" fromLane="3" toLane="5"/>
    <connection from="-107901" to="115599" fromLane="3" toLane="3"/>
    <connection from="-107901" to="107901" fromLane="3" toLane="3"/>

    <connection from="-107902" to="-107912" fromLane="0" toLane="0"/>
    <connection from="-107902" to="-107901" fromLane="0" toLane="0"/>
    <connection from="-107902" to="-107901" fromLane="1" toLane="1"/>
    <connection from="-107902" to="-107901" fromLane="2" toLane="2"/>
    <connection from="-107902" to="-107901" fromLane="3" toLane="3"/>
    <connection from="-107902" to="107913" fromLane="3" toLane="3"/>
    <connection from="-107902" to="107902" fromLane="3" toLane="3"/>

    <connection from="-107903" to="-107902" fromLane="0" toLane="0"/>
    <connection from="-107903" to="-107902" fromLane="1" toLane="1"/>
    <connection from="-107903" to="-107902" fromLane="2" toLane="2"/>
    <connection from="-107903" to="-107902" fromLane="3" toLane="3"/>
    <connection from="-107903" to="83104" fromLane="3" toLane="2"/>
    <connection from="-107903" to="83104" fromLane="3" toLane="3"/>
    <connection from="-107903" to="107903" fromLane="3" toLane="3"/>

    <connection from="-107904" to="-107903" fromLane="0" toLane="0"/>
    <connection from="-107904" to="-107903" fromLane="1" toLane="1"/>
    <connection from="-107904" to="-107903" fromLane="2" toLane="2"/>
    <connection from="-107904" to="-107903" fromLane="3" toLane="3"/>
    <connection from="-107904" to="107904" fromLane="3" toLane="3"/>

    <connection from="-107905" to="83103" fromLane="0" toLane="0"/>
    <connection from="-107905" to="-107906" fromLane="0" toLane="0"/>
    <connection from="-107905" to="-107906" fromLane="1" toLane="1"/>
    <connection from="-107905" to="-107906" fromLane="2" toLane="2"/>
    <connection from="-107905" to="-107906" fromLane="3" toLane="3"/>
    <connection from="-107905" to="-83089" fromLane="3" toLane="1"/>
    <connection from="-107905" to="107905" fromLane="3" toLane="3"/>

    <connection from="-107906" to="-83088" fromLane="0" toLane="0"/>
    <connection from="-107906" to="-83088" fromLane="1" toLane="1"/>
    <connection from="-107906" to="-83088" fromLane="2" toLane="2"/>