<?xml version="1.0" encoding="UTF-8"?>

<!-- generated on Tue Feb 12 13:04:11 2019 by Eclipse SUMO duarouter Version v1_1_0+0090-23cbd8772d
<configuration xmlns:xsi="http://www.w3.org/2001/XMLSchema-instance" xsi:noNamespaceSchemaLocation="http://sumo.dlr.de/xsd/duarouterConfiguration.xsd">

    <input>
        <net-file value="net.net.xml"/>
        <route-files value="dfw.passenger.trips.xml"/>
    </input>

    <output>
        <output-file value="dfw.passenger.trips.xml.tmp"/>
        <write-trips value="true"/>
    </output>

    <time>
        <begin value="0"/>
        <end value="3600.0"/>
    </time>

    <report>
        <no-warnings value="true"/>
        <ignore-errors value="true"/>
        <no-step-log value="true"/>
    </report>

</configuration>
-->

<routes xmlns:xsi="http://www.w3.org/2001/XMLSchema-instance" xsi:noNamespaceSchemaLocation="http://sumo.dlr.de/xsd/routes_file.xsd">
    <vType id="veh_passenger" vClass="passenger"/>
    <trip id="veh0" type="veh_passenger" depart="0.00" departLane="best" from="55175" to="-112520"/>
    <trip id="veh1" type="veh_passenger" depart="0.36" departLane="best" from="-86651" to="-83596"/>
    <trip id="veh2" type="veh_passenger" depart="0.72" departLane="best" from="79561" to="76093"/>
    <trip id="veh3" type="veh_passenger" depart="1.08" departLane="best" from="94941" to="-13595"/>
    <trip id="veh4" type="veh_passenger" depart="1.44" departLane="best" from="107938" to="-113066"/>
    <trip id="veh5" type="veh_passenger" depart="1.80" departLane="best" from="-83541" to="114617"/>
    <trip id="veh6" type="veh_passenger" depart="2.16" departLane="best" from="-112910" to="-83292"/>
    <trip id="veh7" type="veh_passenger" depart="2.52" departLane="best" from="71656" to="115620"/>
    <trip id="veh8" type="veh_passenger" depart="2.88" departLane="best" from="-83560" to="120323"/>
    <trip id="veh9" type="veh_passenger" depart="3.24" departLane="best" from="83627" to="-107888"/>
    <trip id="veh10" type="veh_passenger" depart="3.60" departLane="best" from="83568" to="76360"/>
    <trip id="veh11" type="veh_passenger" depart="3.96" departLane="best" from="101071" to="-79686"/>
    <trip id="veh12" type="veh_passenger" depart="4.32" departLane="best" from="99585" to="101047"/>
    <trip id="veh13" type="veh_passenger" depart="4.68" departLane="best" from="-14234" to="-2381"/>
    <trip id="veh14" type="veh_passenger" depart="5.04" departLane="best" from="84224" to="14176"/>
    <trip id="veh15" type="veh_passenger" depart="5.40" departLane="best" from="83597" to="79069"/>
    <trip id="veh16" type="veh_passenger" depart="5.76" departLane="best" from="115526" to="99717"/>
    <trip id="veh17" type="veh_passenger" depart="6.12" departLane="best" from="101444" to="115680"/>
    <trip id="veh18" type="veh_passenger" depart="6.48" departLane="best" from="83844" to="3137"/>
    <trip id="veh19" type="veh_passenger" depart="6.84" departLane="best" from="86936" to="118380"/>
    <trip id="veh20" type="veh_passenger" depart="7.20" departLane="best" from="76459" to="-114561"/>
    <trip id="veh21" type="veh_passenger" depart="7.56" departLane="best" from="-83650" to="-87737"/>
    <trip id="veh22" type="veh_passenger" depart="7.92" departLane="best" from="-120334" to="-83706"/>
    <trip id="veh23" type="veh_passenger" depart="8.28" departLane="best" from="-26563" to="-86941"/>
    <trip id="veh24" type="veh_passenger" depart="8.64" departLane="best" from="55076" to="101324"/>
    <trip id="veh25" type="veh_passenger" depart="9.00" departLane="best" from="101372" to="-83452"/>
    <trip id="veh26" type="veh_passenger" depart="9.36" departLane="best" from="-84306" to="99394"/>
    <trip id="veh27" type="veh_passenger" depart="9.72" departLane="best" from="71296" to="2408"/>
    <trip id="veh28" type="veh_passenger" depart="10.08" departLane="best" from="-82854" to="79064"/>
    <trip id="veh29" type="veh_passenger" depart="10.44" departLane="best" from="-79788" to="101449"/>
    <trip id="veh30" type="veh_passenger" depart="10.80" departLane="best" from="99856" to="55140"/>
    <trip id="veh31" type="veh_passenger" depart="11.16" departLane="best" from="115729" to="76164"/>
    <trip id="veh32" type="veh_passenger" depart="11.52" departLane="best" from="84127" to="83183"/>
    <trip id="veh33" type="veh_passenger" depart="11.88" departLane="best" from="-83661" to="-113096"/>
    <trip id="veh34" type="veh_passenger" depart="12.24" departLane="best" from="-95792" to="-84324"/>
    <trip id="veh35" type="veh_passenger" depart="12.60" departLane="best" from="-83467" to="99464"/>
    <trip id="veh36" type="veh_passenger" depart="12.96" departLane="best" from="87738" to="-95799"/>
    <trip id="veh37" type="veh_passenger" depart="13.32" departLane="best" from="74140" to="104822"/>
    <trip id="veh38" type="veh_passenger" depart="13.68" departLane="best" from="96622" to="113086"/>
    <trip id="veh39" type="veh_passenger" depart="14.04" departLane="best" from="-84290" to="-83871"/>
    <trip id="veh40" type="veh_passenger" depart="14.40" departLane="best" from="115957" to="-84213"/>
    <trip id="veh41" type="veh_passenger" depart="14.76" departLane="best" from="119534" to="95556"/>
    <trip id="veh42" type="veh_passenger" depart="15.12" departLane="best" from="104859" to="-83545"/>
    <trip id="veh43" type="veh_passenger" depart="15.48" departLane="best" from="99930" to="114652"/>
    <trip id="veh44" type="veh_passenger" depart="15.84" departLane="best" from="-14140" to="-114581"/>
    <trip id="veh45" type="veh_passenger" depart="16.20" departLane="best" from="-45681" to="48426"/>
    <trip id="veh46" type="veh_passenger" depart="16.56" departLane="best" from="83437" to="108137"/>
    <trip id="veh47" type="veh_passenger" depart="16.92" departLane="best" from="-115601" to="101467"/>
    <trip id="veh48" type="veh_passenger" depart="17.28" departLane="best" from="99914" to="115376"/>
    <trip id="veh49" type="veh_passenger" depart="17.64" departLane="best" from="99701" to="86702"/>
    <trip id="veh50" type="veh_passenger" depart="18.00" departLane="best" from="-107934" to="76581"/>
    <trip id="veh51" type="veh_passenger" depart="18.36" departLane="best" from="76152" to="115543"/>
    <trip id="veh52" type="veh_passenger" depart="18.72" departLane="best" from="-84304" to="55170"/>
    <trip id="veh53" type="veh_passenger" depart="19.08" departLane="best" from="-45704" to="109178"/>
    <trip id="veh54" type="veh_passenger" depart="19.44" departLane="best" from="112358" to="99555"/>
    <trip id="veh55" type="veh_passenger" depart="19.80" departLane="best" from="87708" to="-84220"/>
    <trip id="veh56" type="veh_passenger" depart="20.16" departLane="best" from="114572" to="-83046"/>
    <trip id="veh57" type="veh_passenger" depart="20.52" departLane="best" from="96176" to="87105"/>
    <trip id="veh58" type="veh_passenger" depart="20.88" departLane="best" from="-88419" to="55092"/>
    <trip id="veh59" type="veh_passenger" depart="21.24" departLane="best" from="2373" to="-79530"/>
    <trip id="veh60" type="veh_passenger" depart="21.60" departLane="best" from="83050" to="115571"/>
    <trip id="veh61" type="veh_passenger" depart="21.96" departLane="best" from="83246" to="115480"/>
    <trip id="veh62" type="veh_passenger" depart="22.32" departLane="best" from="-101424" to="-96187"/>
    <trip id="veh63" type="veh_passenger" depart="22.68" departLane="best" from="-112196" to="99222"/>
    <trip id="veh64" type="veh_passenger" depart="23.04" departLane="best" from="87889" to="83892"/>
    <trip id="veh65" type="veh_passenger" depart="23.40" departLane="best" from="-94924" to="-115097"/>
    <trip id="veh66" type="veh_passenger" depart="23.76" departLane="best" from="87859" to="99498"/>
    <trip id="veh67" type="veh_passenger" depart="24.12" departLane="best" from="-13649" to="113772"/>
    <trip id="veh68" type="veh_passenger" depart="24.48" departLane="best" from="-118068" to="82984"/>
    <trip id="veh69" type="veh_passenger" depart="24.84" departLane="best" from="83090" to="-76098"/>
    <trip id="veh70" type="veh_passenger" depart="25.20" departLane="best" from="113652" to="115661"/>
    <trip id="veh71" type="veh_passenger" depart="25.56" departLane="best" from="-84292" to="87363"/>
    <trip id="veh72" type="veh_passenger" depart="25.92" departLane="best" from="108027" to="-83477"/>
    <trip id="veh73" type="veh_passenger" depart="26.28" departLane="best" from="115564" to="79100"/>
    <trip id="veh74" type="veh_passenger" depart="26.64" departLane="best" from="-83326" to="-95613"/>
    <trip id="veh75" type="veh_passenger" depart="27.00" departLane="best" from="99906" to="73928"/>
    <trip id="veh76" type="veh_passenger" depart="27.36" departLane="best" from="109187" to="114720"/>
    <trip id="veh77" type="veh_passenger" depart="27.72" departLane="best" from="-5022" to="-83613"/>
    <trip id="veh78" type="veh_passenger" depart="28.08" departLane="best" from="101053" to="120038"/>
    <trip id="veh79" type="veh_passenger" depart="28.44" departLane="best" from="-83670" to="-83551"/>
    <trip id="veh80" type="veh_passenger" depart="28.80" departLane="best" from="-118236" to="48467"/>
    <trip id="veh81" type="veh_passenger" depart="29.16" departLane="best" from="-83659" to="95860"/>
    <trip id="veh82" type="veh_passenger" depart="29.52" departLane="best" from="86867" to="-118236"/>
    <trip id="veh83" type="veh_passenger" depart="29.88" departLane="best" from="-83753" to="76025"/>
    <trip id="veh84" type="veh_passenger" depart="30.24" departLane="best" from="-83504" to="-76333"/>
    <trip id="veh85" type="veh_passenger" depart="30.60" departLane="best" from="99311" to="118225"/>
    <trip id="veh86" type="veh_passenger" depart="30.96" departLane="best" from="113526" to="83316"/>
    <trip id="veh87" type="veh_passenger" depart="31.32" departLane="best" from="83600" to="-83180"/>
    <trip id="veh88" type="veh_passenger" depart="31.68" departLane="best" from="-2381" to="109146"/>
    <trip id="veh89" type="veh_passenger" depart="32.04" departLane="best" from="108095" to="113508"/>
    <trip id="veh90" type="veh_passenger" depart="32.40" departLane="best" from="79253" to="76063"/>
    <trip id="veh91" type="veh_passenger" depart="32.76" departLane="best" from="99811" to="-2457"/>
    <trip id="veh92" type="veh_passenger" depart="33.12" departLane="best" from="105010" to="101070"/>
    <trip id="veh93" type="veh_passenger" depart="33.48" departLane="best" from="86936" to="-83897"/>
    <trip id="veh94" type="veh_passenger" depart="33.84" departLane="best" from="-83162" to="112285"/>
    <trip id="veh95" type="veh_passenger" depart="34.20" departLane="best" from="107938" to="-86949"/>
    <trip id="veh96" type="veh_passenger" depart="34.56" departLane="best" from="-83907" to="99054"/>
    <trip id="veh97" type="veh_passenger" depart="34.92" departLane="best" from="109229" to="86706"/>
    <trip id="veh98" type="veh_passenger" depart="35.28" departLane="best" from="115660" to="-114610"/>
    <trip id="veh99" type="veh_passenger" depart="35.64" departLane="best" from="99951" to="83952"/>
    <trip id="veh100" type="veh_passenger" depart="36.00" departLane="best" from="99684" to="99167"/>
    <trip id="veh101" type="veh_passenger" depart="36.36" departLane="best" from="84244" to="-82830"/>
    <trip id="veh102" type="veh_passenger" depart="36.72" departLane="best" from="113764" to="-83501"/>
    <trip id="veh103" type="veh_passenger" depart="37.08" departLane="best" from="104873" to="-115110"/>
    <trip id="veh104" type="veh_passenger" depart="37.44" departLane="best" from="101447" to="99821"/>
    <trip id="veh105" type="veh_passenger" depart="37.80" departLane="best" from="-84292" to="83310"/>
    <trip id="veh106" type="veh_passenger" depart="38.16" departLane="best" from="112522" to="108144"/>
    <trip id="veh107" type="veh_passenger" depart="38.52" departLane="best" from="99585" to="99908"/>
    <trip id="veh109" type="veh_passenger" depart="39.24" departLane="best" from="-79371" to="-88852"/>
    <trip id="veh110" type="veh_passenger" depart="39.60" departLane="best" from="99681" to="118421"/>
    <trip id="veh111" type="veh_passenger" depart="39.96" departLane="best" from="115589" to="79812"/>
    <trip id="veh112" type="veh_passenger" depart="40.32" departLane="best" from="-115070" to="119961"/>
    <trip id="veh113" type="veh_passenger" depart="40.68" departLane="best" from="114591" to="84334"/>
    <trip id="veh114" type="veh_passenger" depart="41.04" departLane="best" from="-79483" to="99613"/>
    <trip id="veh115" type="veh_passenger" depart="41.40" departLane="best" from="-120337" to="-83130"/>
    <trip id="veh116" type="veh_passenger" depart="41.76" departLane="best" from="13375" to="76079"/>
    <trip id="veh117" type="veh_passenger" depart="42.12" departLane="best" from="-83728" to="-70506"/>
    <trip id="veh118" type="veh_passenger" depart="42.48" departLane="best" from="94920" to="-83867"/>
    <trip id="veh119" type="veh_passenger" depart="42.84" departLane="best" from="120460" to="3537"/>
    <trip id="veh120" type="veh_passenger" depart="43.20" departLane="best" from="107916" to="119649"/>
    <trip id="veh121" type="veh_passenger" depart="43.56" departLane="best" from="114793" to="99304"/>
    <trip id="veh122" type="veh_passenger" depart="43.92" departLane="best" from="-83368" to="76543"/>
    <trip id="veh123" type="veh_passenger" depart="44.28" departLane="best" from="-83759" to="104823"/>
    <trip id="veh124" type="veh_passenger" depart="44.64" departLane="best" from="76060" to="-94717"/>
    <trip id="veh125" type="veh_passenger" depart="45.00" departLane="best" from="-95800" to="82815"/>
    <trip id="veh126" type="veh_passenger" depart="45.36" departLane="best" from="-118486" to="113081"/>
    <trip id="veh127" type="veh_passenger" depart="45.72" departLane="best" from="99942" to="99914"/>
    <trip id="veh128" type="veh_passenger" depart="46.08" departLane="best" from="-118492" to="-83493"/>
    <trip id="veh129" type="veh_passenger" depart="46.44" departLane="best" from="-84292" to="99275"/>
    <trip id="veh130" type="veh_passenger" depart="46.80" departLane="best" from="88311" to="87702"/>
    <trip id="veh131" type="veh_passenger" depart="47.16" departLane="best" from="101366" to="-79799"/>
    <trip id="veh132" type="veh_passenger" depart="47.52" departLane="best" from="83907" to="76433"/>
    <trip id="veh133" type="veh_passenger" depart="47.88" departLane="best" from="2489" to="99837"/>
    <trip id="veh134" type="veh_passenger" depart="48.24" departLane="best" from="74038" to="-107899"/>
    <trip id="veh135" type="veh_passenger" depart="48.60" departLane="best" from="83710" to="-94712"/>
    <trip id="veh136" type="veh_passenger" depart="48.96" departLane="best" from="75990" to="99431"/>
    <trip id="veh137" type="veh_passenger" depart="49.32" departLane="best" from="-76332" to="-48454"/>
    <trip id="veh138" type="veh_passenger" depart="49.68" departLane="best" from="-3137" to="115690"/>
    <trip id="veh139" type="veh_passenger" depart="50.04" departLane="best" from="-84769" to="14498"/>
    <trip id="veh140" type="veh_passenger" depart="50.40" departLane="best" from="76570" to="-83366"/>
    <trip id="veh141" type="veh_passenger" depart="50.76" departLane="best" from="55039" to="-84227"/>
    <trip id="veh142" type="veh_passenger" depart="51.12" departLane="best" from="114232" to="95859"/>
    <trip id="veh143" type="veh_passenger" depart="51.48" departLane="best" from="84183" to="-14100"/>
    <trip id="veh144" type="veh_passenger" depart="51.84" departLane="best" from="108095" to="-86932"/>
    <trip id="veh145" type="veh_passenger" depart="52.20" departLane="best" from="-107810" to="83119"/>
    <trip id="veh146" type="veh_passenger" depart="52.56" departLane="best" from="55128" to="-84179"/>
    <trip id="veh147" type="veh_passenger" depart="52.92" departLane="best" from="79804" to="115677"/>
    <trip id="veh148" type="veh_passenger" depart="53.28" departLane="best" from="108496" to="-107914"/>
    <trip id="veh149" type="veh_passenger" depart="53.64" departLane="best" from="-118640" to="88083"/>
    <trip id="veh150" type="veh_passenger" depart="54.00" departLane="best" from="95812" to="115625"/>
    <trip id="veh151" type="veh_passenger" depart="54.36" departLane="best" from="83921" to="118733"/>
    <trip id="veh152" type="veh_passenger" depart="54.72" departLane="best" from="-79067" to="-75987"/>
    <trip id="veh153" type="veh_passenger" depart="55.08" departLane="best" from="-94935" to="95582"/>
    <trip id="veh154" type="veh_passenger" depart="55.44" departLane="best" from="83481" to="86701"/>
    <trip id="veh155" type="veh_passenger" depart="55.80" departLane="best" from="95610" to="-83456"/>
    <trip id="veh156" type="veh_passenger" depart="56.16" departLane="best" from="-83904" to="-2734"/>
    <trip id="veh157" type="veh_passenger" depart="56.52" departLane="best" from="83257" to="88161"/>
    <trip id="veh158" type="veh_passenger" depart="56.88" departLane="best" from="106648" to="45672"/>
    <trip id="veh159" type="veh_passenger" depart="57.24" departLane="best" from="-79366" to="99229"/>
    <trip id="veh160" type="veh_passenger" depart="57.60" departLane="best" from="87003" to="99744"/>
    <trip id="veh161" type="veh_passenger" depart="57.96" departLane="best" from="83641" to="87761"/>
    <trip id="veh162" type="veh_passenger" depart="58.32" departLane="best" from="-112745" to="79366"/>
    <trip id="veh163" type="veh_passenger" depart="58.68" departLane="best" from="100999" to="99237"/>
    <trip id="veh164" type="veh_passenger" depart="59.04" departLane="best" from="83539" to="86890"/>
    <trip id="veh165" type="veh_passenger" depart="59.40" departLane="best" from="83641" to="-84304"/>
    <trip id="veh166" type="veh_passenger" depart="59.76" departLane="best" from="83367" to="-45700"/>
    <trip id="veh167" type="veh_passenger" depart="60.12" departLane="best" from="87440" to="86650"/>
    <trip id="veh168" type="veh_passenger" depart="60.48" departLane="best" from="-83595" to="83707"/>
    <trip id="veh169" type="veh_passenger" depart="60.84" departLane="best" from="112911" to="-94945"/>
    <trip id="veh170" type="veh_passenger" depart="61.20" departLane="best" from="83475" to="-83646"/>
    <trip id="veh171" type="veh_passenger" depart="61.56" departLane="best" from="-112548" to="-83218"/>
    <trip id="veh172" type="veh_passenger" depart="61.92" departLane="best" from="-96711" to="86926"/>
    <trip id="veh173" type="veh_passenger" depart="62.28" departLane="best" from="99665" to="-86955"/>
    <trip id="veh175" type="veh_passenger" depart="63.00" departLane="best" from="99786" to="115533"/>
    <trip id="veh176" type="veh_passenger" depart="63.36" departLane="best" from="99435" to="-48453"/>
    <trip id="veh177" type="veh_passenger" depart="63.72" departLane="best" from="99695" to="-83046"/>
    <trip id="veh178" type="veh_passenger" depart="64.08" departLane="best" from="99629" to="-84260"/>
    <trip id="veh179" type="veh_passenger" depart="64.44" departLane="best" from="-3689" to="109176"/>
    <trip id="veh180" type="veh_passenger" depart="64.80" departLane="best" from="79177" to="-95790"/>
    <trip id="veh181" type="veh_passenger" depart="65.16" departLane="best" from="14234" to="114668"/>
    <trip id="veh182" type="veh_passenger" depart="65.52" departLane="best" from="101499" to="118293"/>
    <trip id="veh183" type="veh_passenger" depart="65.88" departLane="best" from="-84010" to="76478"/>
    <trip id="veh184" type="veh_passenger" depart="66.24" departLane="best" from="-106795" to="99159"/>
    <trip id="veh187" type="veh_passenger" depart="67.32" departLane="best" from="101321" to="-118117"/>
    <trip id="veh188" type="veh_passenger" depart="67.68" departLane="best" from="75997" to="-99880"/>
    <trip id="veh189" type="veh_passenger" depart="68.04" departLane="best" from="-95615" to="84261"/>
    <trip id="veh190" type="veh_passenger" depart="68.40" departLane="best" from="76588" to="-94720"/>
    <trip id="veh191" type="veh_passenger" depart="68.76" departLane="best" from="-94943" to="106916"/>
    <trip id="veh192" type="veh_passenger" depart="69.12" departLane="best" from="105010" to="-88506"/>
    <trip id="veh193" type="veh_passenger" depart="69.48" departLane="best" from="-74068" to="108005"/>
    <trip id="veh194" type="veh_passenger" depart="69.84" departLane="best" from="99447" to="76100"/>
    <trip id="veh195" type="veh_passenger" depart="70.20" departLane="best" from="95803" to="28873"/>
    <trip id="veh196" type="veh_passenger" depart="70.56" departLane="best" from="-88765" to="115646"/>
    <trip id="veh197" type="veh_passenger" depart="70.92" departLane="best" from="-101412" to="-87454"/>
    <trip id="veh198" type="veh_passenger" depart="71.28" departLane="best" from="108511" to="118488"/>
    <trip id="veh199" type="veh_passenger" depart="71.64" departLane="best" from="74075" to="113492"/>
    <trip id="veh200" type="veh_passenger" depart="72.00" departLane="best" from="109221" to="-83501"/>
    <trip id="veh201" type="veh_passenger" depart="72.36" departLane="best" from="113530" to="95616"/>
    <trip id="veh202" type="veh_passenger" depart="72.72" departLane="best" from="83481" to="-82885"/>
    <trip id="veh203" type="veh_passenger" depart="73.08" departLane="best" from="-13584" to="114702"/>
    <trip id="veh204" type="veh_passenger" depart="73.44" departLane="best" from="54895" to="101036"/>
    <trip id="veh205" type="veh_passenger" depart="73.80" departLane="best" from="83723" to="82796"/>
    <trip id="veh206" type="veh_passenger" depart="74.16" departLane="best" from="76070" to="-83613"/>
    <trip id="veh207" type="veh_passenger" depart="74.52" departLane="best" from="-83288" to="-112376"/>
    <trip id="veh208" type="veh_passenger" depart="74.88" departLane="best" from="-83838" to="113661"/>
    <trip id="veh209" type="veh_passenger" depart="75.24" departLane="best" from="84275" to="-118485"/>
    <trip id="veh210" type="veh_passenger" depart="75.60" departLane="best" from="107829" to="48446"/>
    <trip id="veh211" type="veh_passenger" depart="75.96" departLane="best" from="-83223" to="76345"/>
    <trip id="veh212" type="veh_passenger" depart="76.32" departLane="best" from="114370" to="-83830"/>
    <trip id="veh213" type="veh_passenger" depart="76.68" departLane="best" from="74190" to="-107880"/>
    <trip id="veh214" type="veh_passenger" depart="77.04" departLane="best" from="82854" to="83104"/>
    <trip id="veh215" type="veh_passenger" depart="77.40" departLane="best" from="-31221" to="108271"/>
    <trip id="veh216" type="veh_passenger" depart="77.76" departLane="best" from="-82967" to="99590"/>
    <trip id="veh217" type="veh_passenger" depart="78.12" departLane="best" from="114717" to="-114607"/>
    <trip id="veh218" type="veh_passenger" depart="78.48" departLane="best" from="-83902" to="84276"/>
    <trip id="veh219" type="veh_passenger" depart="78.84" departLane="best" from="112546" to="83534"/>
    <trip id="veh220" type="veh_passenger" depart="79.20" departLane="best" from="76025" to="99843"/>
    <trip id="veh221" type="veh_passenger" depart="79.56" departLane="best" from="13389" to="99524"/>
    <trip id="veh222" type="veh_passenger" depart="79.92" departLane="best" from="94934" to="26564"/>
    <trip id="veh223" type="veh_passenger" depart="80.28" departLane="best" from="76584" to="114612"/>
    <trip id="veh224" type="veh_passenger" depart="80.64" departLane="best" from="83872" to="115645"/>
    <trip id="veh225" type="veh_passenger" depart="81.00" departLane="best" from="95596" to="79637"/>
    <trip id="veh226" type="veh_passenger" depart="81.36" departLane="best" from="113647" to="-84133"/>
    <trip id="veh227" type="veh_passenger" depart="81.72" departLane="best" from="-83879" to="55069"/>
    <trip id="veh228" type="veh_passenger" depart="82.08" departLane="best" from="83090" to="114786"/>
    <trip id="veh229" type="veh_passenger" depart="82.44" departLane="best" from="48437" to="-86849"/>
    <trip id="veh230" type="veh_passenger" depart="82.80" departLane="best" from="-119979" to="-87436"/>
    <trip id="veh231" type="veh_passenger" depart="83.16" departLane="best" from="-84714" to="-95947"/>
    <trip id="veh232" type="veh_passenger" depart="83.52" departLane="best" from="115572" to="-76464"/>
    <trip id="veh233" type="veh_passenger" depart="83.88" departLane="best" from="-83687" to="76323"/>
    <trip id="veh234" type="veh_passenger" depart="84.24" departLane="best" from="76474" to="-115643"/>
    <trip id="veh235" type="veh_passenger" depart="84.60" departLane="best" from="106658" to="115599"/>
    <trip id="veh236" type="veh_passenger" depart="84.96" departLane="best" from="107887" to="-83416"/>
    <trip id="veh237" type="veh_passenger" depart="85.32" departLane="best" from="107924" to="95824"/>
    <trip id="veh238" type="veh_passenger" depart="85.68" departLane="best" from="118921" to="76332"/>
    <trip id="veh239" type="veh_passenger" depart="86.04" departLane="best" from="86695" to="83045"/>
    <trip id="veh240" type="veh_passenger" depart="86.40" departLane="best" from="101459" to="-107883"/>
    <trip id="veh241" type="veh_passenger" depart="86.76" departLane="best" from="101168" to="82833"/>
    <trip id="veh242" type="veh_passenger" depart="87.12" departLane="best" from="84455" to="99552"/>
    <trip id="veh243" type="veh_passenger" depart="87.48" departLane="best" from="107914" to="79806"/>
    <trip id="veh244" type="veh_passenger" depart="87.84" departLane="best" from="115624" to="14176"/>
    <trip id="veh245" type="veh_passenger" depart="88.20" departLane="best" from="-83561" to="-83545"/>
    <trip id="veh246" type="veh_passenger" depart="88.56" departLane="best" from="109168" to="-112906"/>
    <trip id="veh247" type="veh_passenger" depart="88.92" departLane="best" from="101037" to="76115"/>
    <trip id="veh248" type="veh_passenger" depart="89.28" departLane="best" from="106253" to="-82818"/>
    <trip id="veh249" type="veh_passenger" depart="89.64" departLane="best" from="113482" to="-75990"/>
    <trip id="veh250" type="veh_passenger" depart="90.00" departLane="best" from="46494" to="-112597"/>
    <trip id="veh251" type="veh_passenger" depart="90.36" departLane="best" from="104810" to="117176"/>
    <trip id="veh252" type="veh_passenger" depart="90.72" departLane="best" from="-113068" to="55350"/>
    <trip id="veh254" type="veh_passenger" depart="91.44" departLane="best" from="-114607" to="101446"/>
    <trip id="veh255" type="veh_passenger" depart="91.80" departLane="best" from="-83469" to="-96630"/>
    <trip id="veh256" type="veh_passenger" depart="92.16" departLane="best" from="83038" to="101446"/>
    <trip id="veh257" type="veh_passenger" depart="92.52" departLane="best" from="82863" to="83894"/>
    <trip id="veh258" type="veh_passenger" depart="92.88" departLane="best" from="-83951" to="-120459"/>
    <trip id="veh259" type="veh_passenger" depart="93.24" departLane="best" from="-112195" to="115572"/>
    <trip id="veh260" type="veh_passenger" depart="93.60" departLane="best" from="99956" to="101160"/>
    <trip id="veh261" type="veh_passenger" depart="93.96" departLane="best" from="71729" to="83263"/>
    <trip id="veh262" type="veh_passenger" depart="94.32" departLane="best" from="73988" to="82850"/>
    <trip id="veh263" type="veh_passenger" depart="94.68" departLane="best" from="99521" to="-83304"/>
    <trip id="veh264" type="veh_passenger" depart="95.04" departLane="best" from="-112286" to="-79484"/>
    <trip id="veh265" type="veh_passenger" depart="95.40" departLane="best" from="-73991" to="76029"/>
    <trip id="veh266" type="veh_passenger" depart="95.76" departLane="best" from="116371" to="-83535"/>
    <trip id="veh267" type="veh_passenger" depart="96.12" departLane="best" from="76415" to="83067"/>
    <trip id="veh268" type="veh_passenger" depart="96.48" departLane="best" from="-82798" to="22962"/>
    <trip id="veh269" type="veh_passenger" depart="96.84" departLane="best" from="82800" to="-48442"/>
    <trip id="veh270" type="veh_passenger" depart="97.20" departLane="best" from="83730" to="99646"/>
    <trip id="veh271" type="veh_passenger" depart="97.56" departLane="best" from="-3689" to="-112546"/>
    <trip id="veh272" type="veh_passenger" depart="97.92" departLane="best" from="-95583" to="76100"/>
    <trip id="veh273" type="veh_passenger" depart="98.28" departLane="best" from="99593" to="104831"/>
    <trip id="veh274" type="veh_passenger" depart="98.64" departLane="best" from="76549" to="-119607"/>
    <trip id="veh275" type="veh_passenger" depart="99.00" departLane="best" from="76304" to="48423"/>
    <trip id="veh276" type="veh_passenger" depart="99.36" departLane="best" from="-2718" to="83145"/>
    <trip id="veh277" type="veh_passenger" depart="99.72" departLane="best" from="84294" to="14037"/>
    <trip id="veh278" type="veh_passenger" depart="100.08" departLane="best" from="-5023" to="99808"/>
    <trip id="veh279" type="veh_passenger" depart="100.44" departLane="best" from="83292" to="101136"/>
    <trip id="veh280" type="veh_passenger" depart="100.80" departLane="best" from="108502" to="101373"/>
    <trip id="veh281" type="veh_passenger" depart="101.16" departLane="best" from="114617" to="101086"/>
    <trip id="veh282" type="veh_passenger" depart="101.52" departLane="best" from="84274" to="83759"/>
    <trip id="veh283" type="veh_passenger" depart="101.88" departLane="best" from="-2905" to="99614"/>
    <trip id="veh284" type="veh_passenger" depart="102.24" departLane="best" from="55069" to="83840"/>
    <trip id="veh285" type="veh_passenger" depart="102.60" departLane="best" from="76482" to="109184"/>
    <trip id="veh286" type="veh_passenger" depart="102.96" departLane="best" from="79459" to="99653"/>