<?xml version="1.0" encoding="UTF-8"?>

<!-- generated on Tue Mar 12 11:15:54 2019 by Eclipse SUMO netconvert Version 3f89da43
<configuration xmlns:xsi="http://www.w3.org/2001/XMLSchema-instance" xsi:noNamespaceSchemaLocation="http://sumo.dlr.de/xsd/netconvertConfiguration.xsd">

    <input>
        <sumo-net-file value="net.net.xml"/>
    </input>

    <output>
        <plain-output-prefix value="dfw"/>
    </output>

    <projection>
        <proj.plain-geo value="true"/>
    </projection>

    <processing>
        <geometry.max-grade.fix value="false"/>
        <offset.disable-normalization value="true"/>
        <lefthand value="false"/>
    </processing>

    <junctions>
        <no-turnarounds value="true"/>
        <junctions.corner-detail value="5"/>
        <junctions.limit-turn-speed value="5.5"/>
        <rectangular-lane-cut value="false"/>
    </junctions>

    <pedestrian>
        <walkingareas value="false"/>
    </pedestrian>

</configuration>
-->

<tlLogics version="1.1" xmlns:xsi="http://www.w3.org/2001/XMLSchema-instance" xsi:noNamespaceSchemaLocation="http://sumo.dlr.de/xsd/tllogic_file.xsd">
    <tlLogic id="54942" type="static" programID="0" offset="0">
        <phase duration="41" state="GGGGGGGG"/>
        <phase duration="4"  state="yyyyyyyy"/>
        <phase duration="41" state="GGGGGGGG"/>
        <phase duration="4"  state="yyyyyyyy"/>
    </tlLogic>
    <tlLogic id="54944" type="static" programID="0" offset="0">
        <phase duration="35" state="GGGGrrrrrrrrrrrrGGGGGgggrrrrrrrrr"/>
        <phase duration="5"  state="yyyyrrrrrrrrrrrryyyyygggrrrrrrrrr"/>
        <phase duration="6"  state="rrrrGGGrrrrrrrrrrrrrrGGGrrrrrrrrr"/>
        <phase duration="5"  state="rrrryyyrrrrrrrrrrrrrryyyrrrrrrrrr"/>
        <phase duration="34" state="rrrrrrrGGGGGGGggrrrrrrrrGGGGGGGgg"/>
        <phase duration="5"  state="rrrrrrryyyyyyyyyrrrrrrrryyyyyyyyy"/>
    </tlLogic>
    <tlLogic id="54946" type="static" programID="0" offset="0">
        <phase duration="35" state="GGGGGGGrrrrrrrrrrrGGGGrrr"/>
        <phase duration="5"  state="yyyyyyyrrrrrrrrrrryyyyrrr"/>
        <phase duration="6"  state="rrrrrrrGrrrrrrrrrrrrrrGGG"/>
        <phase duration="5"  state="rrrrrrryrrrrrrrrrrrrrryyy"/>
        <phase duration="34" state="rrrrrrrrGGGGGGGGGGrrrrrrr"/>
        <phase duration="5"  state="rrrrrrrryyyyyyyyyyrrrrrrr"/>
    </tlLogic>
    <tlLogic id="54947" type="static" programID="0" offset="0">
        <phase duration="35" state="rrrrrrrrrGGGGrrrGGGGGGGr"/>
        <phase duration="5"  state="rrrrrrrrryyyyrrryyyyyyyr"/>
        <phase duration="6"  state="rrrrrrrrrrrrrGGGrrrrrrrG"/>
        <phase duration="5"  state="rrrrrrrrrrrrryyyrrrrrrry"/>
        <phase duration="34" state="GGGGGGGGGrrrrrrrrrrrrrrr"/>
        <phase duration="5"  state="yyyyyyyyyrrrrrrrrrrrrrrr"/>
    </tlLogic>
    <tlLogic id="54952" type="static" programID="0" offset="0">
        <phase duration="40" state="GGGGGGGggrrrrrrrrrGGGGGGGggrrrrrrrrr"/>
        <phase duration="5"  state="yyyyyyyyyrrrrrrrrryyyyyyyyyrrrrrrrrr"/>
        <phase duration="40" state="rrrrrrrrrGGGGGGgggrrrrrrrrrGGGGGGggg"/>
        <phase duration="5"  state="rrrrrrrrryyyyyyyyyrrrrrrrrryyyyyyyyy"/>
    </tlLogic>
    <tlLogic id="54954" type="static" programID="0" offset="0">
        <phase duration="38" state="GGGGGggggrrrrrrrrrGGGGGGGGGGg"/>
        <phase duration="3"  state="yyyyyggggrrrrrrrrryyyyyyyyyyg"/>
        <phase duration="6"  state="rrrrrGGGGrrrrrrrrrrrrrrrrrrrG"/>
        <phase duration="3"  state="rrrrryyyyrrrrrrrrrrrrrrrrrrry"/>
        <phase duration="37" state="rrrrrrrrrGGGGGGGGgGGGGrrrrrrr"/>
        <phase duration="3"  state="rrrrrrrrryyyyyyyyyyyyyrrrrrrr"/>
    </tlLogic>
    <tlLogic id="54956" type="static" programID="0" offset="0">
        <phase duration="42" state="GGGGGGGggrrrrrrrGGGGGGGggrrrrrrr"/>
        <phase duration="3"  state="yyyyyyyyyrrrrrrryyyyyyyyyrrrrrrr"/>
        <phase duration="42" state="rrrrrrrrrGGGGgggrrrrrrrrrGGGGggg"/>
        <phase duration="3"  state="rrrrrrrrryyyyyyyrrrrrrrrryyyyyyy"/>
    </tlLogic>
    <tlLogic id="54958" type="static" programID="0" offset="0">
        <phase duration="38" state="GGGGGGGGggrrrrrrrrrrGGGGGGGgggrrrrrrrrr"/>
        <phase duration="3"  state="yyyyyyyyyyrrrrrrrrrryyyyyyyyyyrrrrrrrrr"/>
        <phase duration="37" state="rrrrrrrrrrGGGGGGGgggrrrrrrrrrrGGGGGGggg"/>
        <phase duration="3"  state="rrrrrrrrrryyyyyyygggrrrrrrrrrryyyyyyggg"/>
        <phase duration="6"  state="rrrrrrrrrrrrrrrrrGGGrrrrrrrrrrrrrrrrGGG"/>
        <phase duration="3"  state="rrrrrrrrrrrrrrrrryyyrrrrrrrrrrrrrrrryyy"/>
    </tlLogic>
    <tlLogic id="54960" type="static" programID="0" offset="0">
        <phase duration="38" state="rrrrrrrGGGGGGGggrrrrrrrrGGGGGGGgg"/>
        <phase duration="3"  state="rrrrrrryyyyyyyyyrrrrrrrryyyyyyyyy"/>
        <phase duration="37" state="GGGGgggrrrrrrrrrGGGGGgggrrrrrrrrr"/>
        <phase duration="3"  state="yyyygggrrrrrrrrryyyyygggrrrrrrrrr"/>
        <phase duration="6"  state="rrrrGGGrrrrrrrrrrrrrrGGGrrrrrrrrr"/>
        <phase duration="3"  state="rrrryyyrrrrrrrrrrrrrryyyrrrrrrrrr"/>
    </tlLogic>
    <tlLogic id="54962" type="static" programID="0" offset="0">
        <phase duration="38" state="rrrrrrrGGGGGGGggrrrrrrrrGGGGGGGgg"/>
        <phase duration="3"  state="rrrrrrryyyyyyyyyrrrrrrrryyyyyyyyy"/>
        <phase duration="37" state="GGGGgggrrrrrrrrrGGGGGgggrrrrrrrrr"/>
        <phase duration="3"  state="yyyygggrrrrrrrrryyyyygggrrrrrrrrr"/>
        <phase duration="6"  state="rrrrGGGrrrrrrrrrrrrrrGGGrrrrrrrrr"/>
        <phase duration="3"  state="rrrryyyrrrrrrrrrrrrrryyyrrrrrrrrr"/>
    </tlLogic>
    <tlLogic id="54963" type="static" programID="0" offset="0">
        <phase duration="38" state="rrrrrrrrGGGGGGGgGGGGGggg"/>
        <phase duration="3"  state="rrrrrrrryyyyyyygyyyyyggg"/>
        <phase duration="6"  state="rrrrrrrrrrrrrrrGrrrrrGGG"/>
        <phase duration="3"  state="rrrrrrrrrrrrrrryrrrrryyy"/>
        <phase duration="37" state="GGGGGGGgGrrrrrrrrrrrrrrr"/>
        <phase duration="3"  state="yyyyyyyyyrrrrrrrrrrrrrrr"/>
    </tlLogic>
    <tlLogic id="54964" type="static" programID="0" offset="0">
        <phase duration="36" state="GGgGGgrrr"/>
        <phase duration="4"  state="yygyygrrr"/>
        <phase duration="6"  state="rrGrrGrrr"/>
        <phase duration="4"  state="rryrryrrr"/>
        <phase duration="36" state="rrrrrrGGG"/>
        <phase duration="4"  state="rrrrrryyy"/>
    </tlLogic>
    <tlLogic id="54965" type="static" programID="0" offset="0">
        <phase duration="42" state="rrrrrrrrrGGGGGGGggrrrrrrrrrGGGGGGGgg"/>
        <phase duration="3"  state="rrrrrrrrryyyyyyyyyrrrrrrrrryyyyyyyyy"/>
        <phase duration="42" state="GGGGGGgggrrrrrrrrrGGGGGGgggrrrrrrrrr"/>
        <phase duration="3"  state="yyyyyyyyyrrrrrrrrryyyyyyyyyrrrrrrrrr"/>
    </tlLogic>
    <tlLogic id="54966" type="static" programID="0" offset="0">
        <phase duration="42" state="GGGGGGGG"/>
        <phase duration="3"  state="yyyyyyyy"/>
        <phase duration="42" state="GGGGGGGG"/>
        <phase duration="3"  state="yyyyyyyy"/>
    </tlLogic>
    <tlLogic id="54967" type="static" programID="0" offset="0">
        <phase duration="38" state="rrrrrrrrGGGGGGGggrrrrrrrGGGGGGGgg"/>
        <phase duration="3"  state="rrrrrrrryyyyyyyyyrrrrrrryyyyyyyyy"/>
        <phase duration="37" state="GGGGGgggrrrrrrrrrGGGGgggrrrrrrrrr"/>
        <phase duration="3"  state="yyyyygggrrrrrrrrryyyygggrrrrrrrrr"/>
        <phase duration="6"  state="rrrrrGGGrrrrrrrrrrrrrGGGrrrrrrrrr"/>
        <phase duration="3"  state="rrrrryyyrrrrrrrrrrrrryyyrrrrrrrrr"/>
    </tlLogic>
    <tlLogic id="54969" type="static" programID="0" offset="0">
        <phase duration="36" state="GGGGGGgGGGggggrrrrr"/>
        <phase duration="4"  state="yyyyyygyyyggggrrrrr"/>
        <phase duration="6"  state="rrrrrrGrrrGGGGrrrrr"/>
        <phase duration="4"  state="rrrrrryrrryyyyrrrrr"/>
        <phase duration="36" state="GGGGrrrrrrrrrrGGGGg"/>
        <phase duration="4"  state="yyyyrrrrrrrrrryyyyy"/>
    </tlLogic>
    <tlLogic id="54970" type="static" programID="0" offset="0">
        <phase duration="41" state="GGGGGG"/>
        <phase duration="4"  state="yyyyyy"/>
        <phase duration="41" state="GGGGGG"/>
        <phase duration="4"  state="yyyyyy"/>
    </tlLogic>
    <tlLogic id="54995" type="static" programID="0" offset="0">
        <phase duration="40" state="rrrrrrrrrrrGGGGGGGGgggrrrrrrrrrrrGGGGGGGGggg"/>
        <phase duration="5"  state="rrrrrrrrrrryyyyyyyyyyyrrrrrrrrrrryyyyyyyyyyy"/>
        <phase duration="40" state="GGGGGGGGgggrrrrrrrrrrrGGGGGGGGgggrrrrrrrrrrr"/>
        <phase duration="5"  state="yyyyyyyyyyyrrrrrrrrrrryyyyyyyyyyyrrrrrrrrrrr"/>
    </tlLogic>
    <tlLogic id="55030" type="static" programID="0" offset="0">
        <phase duration="82" state="GGGGGGGGGGGG"/>
        <phase duration="3"  state="yyyyyyyyyyyy"/>
        <phase duration="5"  state="rrrrrrrrrrrr"/>
    </tlLogic>
    <tlLogic id="55031" type="static" programID="0" offset="0">
        <phase duration="38" state="GGGGgrrrrrrrrGGGGgg"/>
        <phase duration="3"  state="yyyygrrrrrrrryyyygg"/>
        <phase duration="6"  state="rrrrGrrrrrrrrrrrrGG"/>
        <phase duration="3"  state="rrrryrrrrrrrrrrrryy"/>
        <phase duration="37" state="rrrrrGGGGGGGGrrrrrr"/>
        <phase duration="3"  state="rrrrryyyyyyyyrrrrrr"/>
    </tlLogic>
    <tlLogic id="55051" type="static" programID="0" offset="0">
        <phase duration="35" state="GGGGGGGrrrrrrrrrrGGGGrrr"/>
        <phase duration="5"  state="yyyyyyyrrrrrrrrrryyyyrrr"/>
        <phase duration="6"  state="rrrrrrrGrrrrrrrrrrrrrGGG"/>
        <phase duration="5"  state="rrrrrrryrrrrrrrrrrrrryyy"/>
        <phase duration="34" state="rrrrrrrrGGGGGGGGGrrrrrrr"/>
        <phase duration="5"  state="rrrrrrrryyyyyyyyyrrrrrrr"/>
    </tlLogic>
    <tlLogic id="55054" type="static" programID="0" offset="0">
        <phase duration="35" state="GGGGrrrGGGGGGGrrrrrrrrrrr"/>
        <phase duration="5"  state="yyyyrrryyyyyyyrrrrrrrrrrr"/>
        <phase duration="6"  state="rrrrGGGrrrrrrrGrrrrrrrrrr"/>
        <phase duration="5"  state="rrrryyyrrrrrrryrrrrrrrrrr"/>
        <phase duration="34" state="rrrrrrrrrrrrrrrGGGGGGGGGG"/>
        <phase duration="5"  state="rrrrrrrrrrrrrrryyyyyyyyyy"/>
    </tlLogic>
    <tlLogic id="55078" type="static" programID="0" offset="0">
        <phase duration="36" state="GGGGgrrrrrrrGGGGgg"/>
        <phase duration="4"  state="yyyygrrrrrrryyyygg"/>
        <phase duration="6"  state="rrrrGrrrrrrrrrrrGG"/>
        <phase duration="4"  state="rrrryrrrrrrrrrrryy"/>
        <phase duration="36" state="rrrrrGGGGGGGrrrrrr"/>
        <phase duration="4"  state="rrrrryyyyyyyrrrrrr"/>
    </tlLogic>
    <tlLogic id="55089" type="static" programID="0" offset="0">
        <phase duration="35" state="GGGGGGGrrrrrrrrrGGGGGrr"/>
        <phase duration="5"  state="yyyyyyyrrrrrrrrryyyyyrr"/>
        <phase duration="6"  state="rrrrrrrGrrrrrrrrrrrrrGG"/>
        <phase duration="5"  state="rrrrrrryrrrrrrrrrrrrryy"/>
        <phase duration="34" state="rrrrrrrrGGGGGGGGrrrrrrr"/>
        <phase duration="5"  state="rrrrrrrryyyyyyyyrrrrrrr"/>
    </tlLogic>
    <tlLogic id="55095" type="static" programID="0" offset="0">
        <phase duration="35" state="rrrrrrrrGGGGGrrGGGGGGGr"/>
        <phase duration="5"  state="rrrrrrrryyyyyrryyyyyyyr"/>
        <phase duration="6"  state="rrrrrrrrrrrrrGGrrrrrrrG"/>
        <phase duration="5"  state="rrrrrrrrrrrrryyrrrrrrry"/>
        <phase duration="34" state="GGGGGGGGrrrrrrrrrrrrrrr"/>
        <phase duration="5"  state="yyyyyyyyrrrrrrrrrrrrrrr"/>
    </tlLogic>
    <tlLogic id="55103" type="static" programID="0" offset="0">
        <phase duration="35" state="GGGGGGGrrrrrrrrrGGGGrrr"/>
        <phase duration="5"  state="yyyyyyyrrrrrrrrryyyyrrr"/>
        <phase duration="6"  state="rrrrrrrGrrrrrrrrrrrrGGG"/>
        <phase duration="5"  state="rrrrrrryrrrrrrrrrrrryyy"/>
        <phase duration="34" state="rrrrrrrrGGGGGGGGrrrrrrr"/>
        <phase duration="5"  state="rrrrrrrryyyyyyyyrrrrrrr"/>
    </tlLogic>
    <tlLogic id="55125" type="static" programID="0" offset="0">
        <phase duration="35" state="rrrrrrrrrrGGGGrrrGGGGGGGr"/>
        <phase duration="5"  state="rrrrrrrrrryyyyrrryyyyyyyr"/>
        <phase duration="6"  state="rrrrrrrrrrrrrrGGGrrrrrrrG"/>
        <phase duration="5"  state="rrrrrrrrrrrrrryyyrrrrrrry"/>
        <phase duration="34" state="GGGGGGGGGGrrrrrrrrrrrrrrr"/>
        <phase duration="5"  state="yyyyyyyyyyrrrrrrrrrrrrrrr"/>
    </tlLogic>
    <tlLogic id="55472" type="static" programID="0" offset="0">
        <phase duration="18" state="rrrrrrGGGGGGggrrrrrrrrGGGGggggrrrrrrrr"/>
        <phase duration="4"  state="rrrrrryyyyyyggrrrrrrrryyyyggggrrrrrrrr"/>
        <phase duration="6"  state="rrrrrrrrrrrrGGrrrrrrrrrrrrGGGGrrrrrrrr"/>
        <phase duration="4"  state="rrrrrrrrrrrryyrrrrrrrrrrrryyyyrrrrrrrr"/>
        <phase duration="20" state="rrrrrrrrrrrrrrGGGGGGggrrrrrrrrGGGGgggg"/>
        <phase duration="4"  state="rrrrrrrrrrrrrryyyyyyggrrrrrrrryyyygggg"/>
        <phase duration="6"  state="rrrrrrrrrrrrrrrrrrrrGGrrrrrrrrrrrrGGGG"/>
        <phase duration="4"  state="rrrrrrrrrrrrrrrrrrrryyrrrrrrrrrrrryyyy"/>
        <phase duration="20" state="GGGGGgGrrrrrrrrrrrrrrrrrrrrrrrrrrrrrrr"/>
        <phase duration="4"  state="yyyyyyyrrrrrrrrrrrrrrrrrrrrrrrrrrrrrrr"/>
    </tlLogic>
    <tlLogic id="60629" type="static" programID="0" offset="0">
        <phase duration="40" state="GGggrrrrGGGg"/>
        <phase duration="5"  state="yyyyrrrryyyy"/>
        <phase duration="40" state="rrrrGGGgGrrr"/>
        <phase duration="5"  state="rrrryyyyyrrr"/>
    </tlLogic>
    <tlLogic id="60690" type="static" programID="0" offset="0">
        <phase duration="40" state="GGGrrrrrr"/>
        <phase duration="5"  state="yyyrrrrrr"/>
        <phase duration="40" state="rrrGGGGGG"/>
        <phase duration="5"  state="rrryyyyyy"/>
    </tlLogic>
    <tlLogic id="60704" type="static" programID="0" offset="0">
        <phase duration="41" state="GGGGGgrrrrrrrGGGGgg"/>
        <phase duration="4"  state="yyyyyyrrrrrrryyyyyy"/>
        <phase duration="41" state="rrrrrrGGGGGGGrrrrrr"/>
        <phase duration="4"  state="rrrrrryyyyyyyrrrrrr"/>
    </tlLogic>
    <tlLogic id="61501" type="static" programID="0" offset="0">
        <phase duration="41" state="GGGGGgrrrrrrGGGGgg"/>
        <phase duration="4"  state="yyyyyyrrrrrryyyyyy"/>
        <phase duration="41" state="rrrrrrGGGGGGrrrrrr"/>
        <phase duration="4"  state="rrrrrryyyyyyrrrrrr"/>
    </tlLogic>
    <tlLogic id="61502" type="static" programID="0" offset="0">
        <phase duration="35" state="GGrrrrrrrrGGGGr"/>
        <phase duration="5"  state="yyrrrrrrrryyyyr"/>
        <phase duration="6"  state="rrGGGrrrrrrrrrG"/>
        <phase duration="5"  state="rryyyrrrrrrrrry"/>
        <phase duration="34" state="rrrrrGGGGgGGrrr"/>
        <phase duration="5"  state="rrrrryyyyyyyrrr"/>
    </tlLogic>
    <tlLogic id="61505" type="static" programID="0" offset="0">
        <phase duration="36" state="GGGGGGGgrrrrrrrrrrGGGGggg"/>
        <phase duration="4"  state="yyyyyyygrrrrrrrrrryyyyggg"/>
        <phase duration="6"  state="rrrrrrrGrrrrrrrrrrrrrrGGG"/>
        <phase duration="4"  state="rrrrrrryrrrrrrrrrrrrrryyy"/>
        <phase duration="36" state="rrrrrrrrGGGGGGGGGGrrrrrrr"/>
        <phase duration="4"  state="rrrrrrrryyyyyyyyyyrrrrrrr"/>
    </tlLogic>
    <tlLogic id="61506" type="static" programID="0" offset="0">
        <phase duration="33" state="rrrrrrrGGGGGgGgggggggrrrrrrr"/>
        <phase duration="3"  state="rrrrrrryyyyygygggggggrrrrrrr"/>
        <phase duration="6"  state="rrrrrrrrrrrrGrGGGGGGGrrrrrrr"/>
        <phase duration="3"  state="rrrrrrrrrrrryryyyyyyyrrrrrrr"/>
        <phase duration="33" state="GggggggrrrrrrrrrrrrrrGGGGGGg"/>
        <phase duration="3"  state="yggggggrrrrrrrrrrrrrryyyyyyg"/>
        <phase duration="6"  state="rGGGGGGrrrrrrrrrrrrrrrrrrrrG"/>
        <phase duration="3"  state="ryyyyyyrrrrrrrrrrrrrrrrrrrry"/>
    </tlLogic>
    <tlLogic id="61507" type="static" programID="0" offset="0">
        <phase duration="41" state="GGGGGgrrrrrrGGGGgg"/>
        <phase duration="4"  state="yyyyyyrrrrrryyyyyy"/>
        <phase duration="41" state="rrrrrrGGGGGGrrrrrr"/>
        <phase duration="4"  state="rrrrrryyyyyyrrrrrr"/>
    </tlLogic>
    <tlLogic id="61511" type="static" programID="0" offset="0">
        <phase duration="41" state="rrrrrrrrrGGGGGGGggrrrrrrrrrGGGGGGGgg"/>
        <phase duration="4"  state="rrrrrrrrryyyyyyyyyrrrrrrrrryyyyyyyyy"/>
        <phase duration="41" state="GGGGGGgggrrrrrrrrrGGGGGGgggrrrrrrrrr"/>
        <phase duration="4"  state="yyyyyyyyyrrrrrrrrryyyyyyyyyrrrrrrrrr"/>
    </tlLogic>
    <tlLogic id="61513" type="static" programID="0" offset="0">
        <phase duration="35" state="rrrrrrrrrGGGGGGGGGGrGGGGGrrrr"/>
        <phase duration="5"  state="rrrrrrrrryyyyyyyyyyryyyyyrrrr"/>
        <phase duration="6"  state="rrrrrrrrrrrrrrrrrrrGrrrrrGGGG"/>
        <phase duration="5"  state="rrrrrrrrrrrrrrrrrrryrrrrryyyy"/>
        <phase duration="34" state="GGGGGGGGgGGGGrrrrrrrrrrrrrrrr"/>
        <phase duration="5"  state="yyyyyyyyyyyyyrrrrrrrrrrrrrrrr"/>
    </tlLogic>
    <tlLogic id="61514" type="static" programID="0" offset="0">
        <phase duration="80" state="GGGGGGGGGGGG"/>
        <phase duration="5"  state="yyyyyyyyyyyy"/>
        <phase duration="5"  state="rrrrrrrrrrrr"/>
    </tlLogic>
    <tlLogic id="61515" type="static" programID="0" offset="0">
        <phase duration="35" state="GGGGGGGrrrrrrrrrrGGGGrrr"/>
        <phase duration="5"  state="yyyyyyyrrrrrrrrrryyyyrrr"/>
        <phase duration="6"  state="rrrrrrrGrrrrrrrrrrrrrGGG"/>
        <phase duration="5"  state="rrrrrrryrrrrrrrrrrrrryyy"/>
        <phase duration="34" state="rrrrrrrrGGGGGGGGGrrrrrrr"/>
        <phase duration="5"  state="rrrrrrrryyyyyyyyyrrrrrrr"/>
    </tlLogic>
    <tlLogic id="61516" type="static" programID="0" offset="0">
        <phase duration="80" state="GGGGGGGGGGGG"/>
        <phase duration="5"  state="yyyyyyyyyyyy"/>
        <phase duration="5"  state="rrrrrrrrrrrr"/>
    </tlLogic>
    <tlLogic id="61526" type="static" programID="0" offset="0">
        <phase duration="36" state="GGGGGgggrrrrrrrrrGGGGGGGGg"/>
        <phase duration="4"  state="yyyyygggrrrrrrrrryyyyyyyyg"/>
        <phase duration="6"  state="rrrrrGGGrrrrrrrrrrrrrrrrrG"/>
        <phase duration="4"  state="rrrrryyyrrrrrrrrrrrrrrrrry"/>
        <phase duration="36" state="rrrrrrrrGGGGGGGGgGGrrrrrrr"/>
        <phase duration="4"  state="rrrrrrrryyyyyyyyyyyrrrrrrr"/>
    </tlLogic>
    <tlLogic id="61527" type="static" programID="0" offset="0">
        <phase duration="35" state="GGGGGGrrrrrrrrrrGGGGGrrrrrrrrrr"/>
        <phase duration="5"  state="yyyyyyrrrrrrrrrryyyyyrrrrrrrrrr"/>
        <phase duration="6"  state="rrrrrrGGrrrrrrrrrrrrrGGrrrrrrrr"/>
        <phase duration="5"  state="rrrrrryyrrrrrrrrrrrrryyrrrrrrrr"/>
        <phase duration="34" state="rrrrrrrrGGGGGgggrrrrrrrGGGGGGgg"/>
        <phase duration="5"  state="rrrrrrrryyyyyyyyrrrrrrryyyyyyyy"/>
    </tlLogic>
    <tlLogic id="61584" type="static" programID="0" offset="0">
        <phase duration="36" state="GGGGGgrrrrrrrrGGGGgg"/>
        <phase duration="4"  state="yyyyygrrrrrrrryyyygg"/>
        <phase duration="6"  state="rrrrrGrrrrrrrrrrrrGG"/>
        <phase duration="4"  state="rrrrryrrrrrrrrrrrryy"/>
        <phase duration="36" state="rrrrrrGGGGGGGGrrrrrr"/>
        <phase duration="4"  state="rrrrrryyyyyyyyrrrrrr"/>
    </tlLogic>
    <tlLogic id="61585" type="static" programID="0" offset="0">
        <phase duration="41" state="rrrrrrrrrGGGGGGGggrrrrrrrrrGGGGGGGgg"/>
        <phase duration="4"  state="rrrrrrrrryyyyyyyyyrrrrrrrrryyyyyyyyy"/>
        <phase duration="41" state="GGGGGGgggrrrrrrrrrGGGGGGgggrrrrrrrrr"/>
        <phase duration="4"  state="yyyyyyyyyrrrrrrrrryyyyyyyyyrrrrrrrrr"/>
    </tlLogic>
    <tlLogic id="61588" type="static" programID="0" offset="0">
        <phase duration="35" state="rrrrrrrrGGGGGGGrGGGGGrrr"/>
        <phase duration="5"  state="rrrrrrrryyyyyyyryyyyyrrr"/>
        <phase duration="6"  state="rrrrrrrrrrrrrrrGrrrrrGGG"/>
        <phase duration="5"  state="rrrrrrrrrrrrrrryrrrrryyy"/>
        <phase duration="34" state="GGGGGGGgGrrrrrrrrrrrrrrr"/>
        <phase duration="5"  state="yyyyyyyyyrrrrrrrrrrrrrrr"/>
    </tlLogic>
    <tlLogic id="61589" type="static" programID="0" offset="0">
        <phase duration="40" state="GGGGGGGGGGGG"/>
        <phase duration="5"  state="yyyyyyyyyyyy"/>
        <phase duration="40" state="GGGGGGGGGGGG"/>
        <phase duration="5"  state="yyyyyyyyyyyy"/>
    </tlLogic>
    <tlLogic id="61590" type="static" programID="0" offset="0">
        <phase duration="36" state="GGGGGGGgGGGGGgggrrrrrrrr"/>
        <phase duration="4"  state="yyyyyyygyyyyygggrrrrrrrr"/>
        <phase duration="6"  state="rrrrrrrGrrrrrGGGrrrrrrrr"/>
        <phase duration="4"  state="rrrrrrryrrrrryyyrrrrrrrr"/>
        <phase duration="36" state="GrrrrrrrrrrrrrrrGGGGGGGg"/>
        <phase duration="4"  state="yrrrrrrrrrrrrrrryyyyyyyy"/>
    </tlLogic>
    <tlLogic id="61633" type="static" programID="0" offset="0">
        <phase duration="36" state="GGGGGGGGgGGGGGgggrrrrrrrr"/>
        <phase duration="4"  state="yyyyyyyygyyyyygggrrrrrrrr"/>
        <phase duration="6"  state="rrrrrrrrGrrrrrGGGrrrrrrrr"/>
        <phase duration="4"  state="rrrrrrrryrrrrryyyrrrrrrrr"/>
        <phase duration="36" state="GGrrrrrrrrrrrrrrrGGGGGGGg"/>
        <phase duration="4"  state="yyrrrrrrrrrrrrrrryyyyyyyy"/>
    </tlLogic>
    <tlLogic id="61634" type="static" programID="0" offset="0">
        <phase duration="36" state="GGGGggGGGGGgrrrrrrr"/>
        <phase duration="4"  state="yyyyggyyyyygrrrrrrr"/>
        <phase duration="6"  state="rrrrGGrrrrrGrrrrrrr"/>
        <phase duration="4"  state="rrrryyrrrrryrrrrrrr"/>
        <phase duration="36" state="rrrrrrrrrrrrGGGGGGG"/>
        <phase duration="4"  state="rrrrrrrrrrrryyyyyyy"/>
    </tlLogic>
    <tlLogic id="61640" type="static" programID="0" offset="0">
        <phase duration="29" state="rrrrrrrGGGGrrrrrrrrrrGGGGggg"/>
        <phase duration="5"  state="rrrrrrryyyyrrrrrrrrrryyyyggg"/>
        <phase duration="6"  state="rrrrrrrrrrrGGrrrrrrrrrrrrGGG"/>
        <phase duration="5"  state="rrrrrrrrrrryyrrrrrrrrrrrryyy"/>
        <phase duration="29" state="GGGGGggrrrrrrGGGGGGggrrrrrrr"/>
        <phase duration="5"  state="yyyyyggrrrrrryyyyyyggrrrrrrr"/>
        <phase duration="6"  state="rrrrrGGrrrrrrrrrrrrGGrrrrrrr"/>
        <phase duration="5"  state="rrrrryyrrrrrrrrrrrryyrrrrrrr"/>
    </tlLogic>
    <tlLogic id="61641" type="static" programID="0" offset="0">
        <phase duration="38" state="GGGGGGGGgGGGGGgggrrrrrrrr"/>
        <phase duration="3"  state="yyyyyyyygyyyyygggrrrrrrrr"/>
        <phase duration="6"  state="rrrrrrrrGrrrrrGGGrrrrrrrr"/>
        <phase duration="3"  state="rrrrrrrryrrrrryyyrrrrrrrr"/>
        <phase duration="37" state="GGrrrrrrrrrrrrrrrGGGGGGGg"/>
        <phase duration="3"  state="yyrrrrrrrrrrrrrrryyyyyyyy"/>
    </tlLogic>
    <tlLogic id="61644" type="static" programID="0" offset="0">
        <phase duration="38" state="GGGGGGGggrrrrrrrGGGGGGGggrrrrrrrr"/>
        <phase duration="3"  state="yyyyyyyyyrrrrrrryyyyyyyyyrrrrrrrr"/>
        <phase duration="37" state="rrrrrrrrrGGGGgggrrrrrrrrrGGGGGggg"/>
        <phase duration="3"  state="rrrrrrrrryyyygggrrrrrrrrryyyyyggg"/>
        <phase duration="6"  state="rrrrrrrrrrrrrGGGrrrrrrrrrrrrrrGGG"/>
        <phase duration="3"  state="rrrrrrrrrrrrryyyrrrrrrrrrrrrrryyy"/>
    </tlLogic>
    <tlLogic id="61645" type="static" programID="0" offset="0">
        <phase duration="38" state="rrrrrGGGGGggrrrrrrGGGGGgg"/>
        <phase duration="3"  state="rrrrryyyyyyyrrrrrryyyyyyy"/>
        <phase duration="37" state="GGGggrrrrrrrGGGGggrrrrrrr"/>
        <phase duration="3"  state="yyyggrrrrrrryyyyggrrrrrrr"/>
        <phase duration="6"  state="rrrGGrrrrrrrrrrrGGrrrrrrr"/>
        <phase duration="3"  state="rrryyrrrrrrrrrrryyrrrrrrr"/>
    </tlLogic>
    <tlLogic id="61646" type="static" programID="0" offset="0">
        <phase duration="42" state="rrrrrrrrrGGGGGGGggrrrrrrrrrGGGGGGGgg"/>
        <phase duration="3"  state="rrrrrrrrryyyyyyyyyrrrrrrrrryyyyyyyyy"/>
        <phase duration="42" state="GGGGGGgggrrrrrrrrrGGGGGGgggrrrrrrrrr"/>
        <phase duration="3"  state="yyyyyyyyyrrrrrrrrryyyyyyyyyrrrrrrrrr"/>
    </tlLogic>
    <tlLogic id="61647" type="static" programID="0" offset="0">
        <phase duration="42" state="rrrrrGGGGGggrrrrrGGGGGgg"/>
        <phase duration="3"  state="rrrrryyyyyyyrrrrryyyyyyy"/>
        <phase duration="42" state="GGGggrrrrrrrGGGggrrrrrrr"/>
        <phase duration="3"  state="yyyyyrrrrrrryyyyyrrrrrrr"/>
    </tlLogic>
    <tlLogic id="61648" type="static" programID="0" offset="0">
        <phase duration="40" state="GGGGgggrrrrrrGGGGGGg"/>
        <phase duration="5"  state="yyyyyyyrrrrrryyyyyyy"/>
        <phase duration="40" state="rrrrrrrGGGGGgGGrrrrr"/>
        <phase duration="5"  state="rrrrrrryyyyyyyyrrrrr"/>
    </tlLogic>
    <tlLogic id="61650" type="static" programID="0" offset="0">
        <phase duration="40" state="rrrrrGGGGGgGGGGgg"/>
        <phase duration="5"  state="rrrrryyyyyyyyyyyy"/>
        <phase duration="40" state="GGGGgGrrrrrrrrrrr"/>
        <phase duration="5"  state="yyyyyyrrrrrrrrrrr"/>
    </tlLogic>
    <tlLogic id="61653" type="static" programID="0" offset="0">
        <phase duration="40" state="GGGGGgrrrrrrGGGGgg"/>
        <phase duration="5"  state="yyyyyyrrrrrryyyyyy"/>
        <phase duration="40" state="rrrrrrGGGGGGrrrrrr"/>
        <phase duration="5"  state="rrrrrryyyyyyrrrrrr"/>
    </tlLogic>
    <tlLogic id="61656" type="static" programID="0" offset="0">
        <phase duration="42" state="rrrrrrrGGGGGggrrrrrrrGGGGGgg"/>
        <phase duration="3"  state="rrrrrrryyyyyyyrrrrrrryyyyyyy"/>
        <phase duration="42" state="GGGGGggrrrrrrrGGGGGggrrrrrrr"/>
        <phase duration="3"  state="yyyyyyyrrrrrrryyyyyyyrrrrrrr"/>
    </tlLogic>
    <tlLogic id="61657" type="static" programID="0" offset="0">
        <phase duration="42" state="GGGGGGgGGGGgggrrrrrr"/>
        <phase duration="3"  state="yyyyyyyyyyyyyyrrrrrr"/>
        <phase duration="42" state="GGrrrrrrrrrrrrGGGGGg"/>
        <phase duration="3"  state="yyrrrrrrrrrrrryyyyyy"/>
    </tlLogic>
    <tlLogic id="61658" type="static" programID="0" offset="0">
        <phase duration="82" state="GGGGGGGGGGGG"/>
        <phase duration="3"  state="yyyyyyyyyyyy"/>
        <phase duration="5"  state="rrrrrrrrrrrr"/>
    </tlLogic>
    <tlLogic id="61674" type="static" programID="0" offset="0">
        <phase duration="82" state="GG"/>
        <phase duration="3"  state="yy"/>
        <phase duration="5"  state="rr"/>
    </tlLogic>
    <tlLogic id="61675" type="static" programID="0" offset="0">
        <phase duration="36" state="GGGGggGGGGGgrrrrrrrr"/>
        <phase duration="4"  state="yyyyggyyyyygrrrrrrrr"/>
        <phase duration="6"  state="rrrrGGrrrrrGrrrrrrrr"/>
        <phase duration="4"  state="rrrryyrrrrryrrrrrrrr"/>
        <phase duration="36" state="rrrrrrrrrrrrGGGGGGGG"/>
        <phase duration="4"  state="rrrrrrrrrrrryyyyyyyy"/>
    </tlLogic>
    <tlLogic id="61684" type="static" programID="0" offset="0">
        <phase duration="40" state="GGGGGgrrrrrrGGGGgg"/>
        <phase duration="5"  state="yyyyyyrrrrrryyyyyy"/>
        <phase duration="40" state="rrrrrrGGGGGGrrrrrr"/>
        <phase duration="5"  state="rrrrrryyyyyyrrrrrr"/>
    </tlLogic>
    <tlLogic id="61687" type="static" programID="0" offset="0">
        <phase duration="40" state="GGGGGgrrrrrrGGGGgg"/>
        <phase duration="5"  state="yyyyyyrrrrrryyyyyy"/>
        <phase duration="40" state="rrrrrrGGGGGGrrrrrr"/>
        <phase duration="5"  state="rrrrrryyyyyyrrrrrr"/>
    </tlLogic>
    <tlLogic id="61725" type="static" programID="0" offset="0">
        <phase duration="80" state="GGGGGGGG"/>
        <phase duration="5"  state="yyyyyyyy"/>
        <phase duration="5"  state="rrrrrrrr"/>
    </tlLogic>
    <tlLogic id="61728" type="static" programID="0" offset="0">
        <phase duration="35" state="rrrrrrrGGGGrrrGGGGGGr"/>
        <phase duration="5"  state="rrrrrrryyyyrrryyyyyyr"/>
        <phase duration="6"  state="rrrrrrrrrrrGGGrrrrrrG"/>
        <phase duration="5"  state="rrrrrrrrrrryyyrrrrrry"/>
        <phase duration="34" state="GGGGGGGrrrrrrrrrrrrrr"/>
        <phase duration="5"  state="yyyyyyyrrrrrrrrrrrrrr"/>
    </tlLogic>
    <tlLogic id="61733" type="static" programID="0" offset="0">
        <phase duration="40" state="GGGGggrrrrrGGGGGg"/>
        <phase duration="5"  state="yyyyyyrrrrryyyyyy"/>
        <phase duration="40" state="rrrrrrGGGGgGrrrrr"/>
        <phase duration="5"  state="rrrrrryyyyyyrrrrr"/>
    </tlLogic>
    <tlLogic id="61750" type="static" programID="0" offset="0">
        <phase duration="40" state="GGGGGGrrr"/>
        <phase duration="5"  state="yyyyyyrrr"/>
        <phase duration="40" state="rrrrrrGGG"/>
        <phase duration="5"  state="rrrrrryyy"/>
    </tlLogic>
    <tlLogic id="61751" type="static" programID="0" offset="0">
        <phase duration="40" state="GGGGGgrrrrrrGGGGgg"/>
        <phase duration="5"  state="yyyyyyrrrrrryyyyyy"/>
        <phase duration="40" state="rrrrrrGGGGGGrrrrrr"/>
        <phase duration="5"  state="rrrrrryyyyyyrrrrrr"/>
    </tlLogic>
    <tlLogic id="61758" type="static" programID="0" offset="0">
        <phase duration="40" state="GGr"/>
        <phase duration="5"  state="yyr"/>
        <phase duration="40" state="rrG"/>
        <phase duration="5"  state="rry"/>
    </tlLogic>