<?xml version="1.0" encoding="UTF-8"?>

<!-- generated on Tue Mar 12 11:15:54 2019 by Eclipse SUMO netconvert Version 3f89da43
<configuration xmlns:xsi="http://www.w3.org/2001/XMLSchema-instance" xsi:noNamespaceSchemaLocation="http://sumo.dlr.de/xsd/netconvertConfiguration.xsd">

    <input>
        <sumo-net-file value="net.net.xml"/>
    </input>

    <output>
        <plain-output-prefix value="dfw"/>
    </output>

    <projection>
        <proj.plain-geo value="true"/>
    </projection>

    <processing>
        <geometry.max-grade.fix value="false"/>
        <offset.disable-normalization value="true"/>
        <lefthand value="false"/>
    </processing>

    <junctions>
        <no-turnarounds value="true"/>
        <junctions.corner-detail value="5"/>
        <junctions.limit-turn-speed value="5.5"/>
        <rectangular-lane-cut value="false"/>
    </junctions>

    <pedestrian>
        <walkingareas value="false"/>
    </pedestrian>

</configuration>
-->

<nodes version="1.1" xmlns:xsi="http://www.w3.org/2001/XMLSchema-instance" xsi:noNamespaceSchemaLocation="http://sumo.dlr.de/xsd/nodes_file.xsd">
    <node id="54942" x="-96.993407" y="32.960340" type="traffic_light" tl="54942"/>
    <node id="54943" x="-96.989151" y="32.959946" type="priority"/>
    <node id="54944" x="-96.993442" y="32.947882" type="traffic_light" tl="54944"/>
    <node id="54945" x="-96.985800" y="32.948939" type="priority"/>
    <node id="54946" x="-96.993630" y="32.911610" type="traffic_light" tl="54946"/>
    <node id="54947" x="-96.992707" y="32.906324" type="traffic_light" tl="54947"/>
    <node id="54948" x="-97.007904" y="32.907799" type="priority"/>
    <node id="54949" x="-96.991041" y="32.901603" type="priority"/>
    <node id="54950" x="-97.004264" y="32.877910" type="priority"/>
    <node id="54951" x="-96.991460" y="32.880251" type="priority"/>
    <node id="54952" x="-96.991095" y="32.888726" type="traffic_light" tl="54952"/>
    <node id="54953" x="-96.996498" y="32.865618" type="priority"/>
    <node id="54954" x="-96.991563" y="32.865301" type="traffic_light" tl="54954"/>
    <node id="54955" x="-96.996290" y="32.860531" type="priority"/>
    <node id="54956" x="-96.991761" y="32.860747" type="traffic_light" tl="54956"/>
    <node id="54957" x="-96.996425" y="32.857076" type="priority"/>
    <node id="54958" x="-96.991948" y="32.857071" type="traffic_light" tl="54958"/>
    <node id="54959" x="-97.000478" y="32.850825" type="right_before_left"/>
    <node id="54960" x="-96.992080" y="32.850887" type="traffic_light" tl="54960"/>
    <node id="54961" x="-97.001281" y="32.847517" type="right_before_left"/>
    <node id="54962" x="-96.992170" y="32.847484" type="traffic_light" tl="54962"/>
    <node id="54963" x="-96.993576" y="32.832846" type="traffic_light" tl="54963"/>
    <node id="54964" x="-96.988544" y="32.834029" type="traffic_light" tl="54964"/>
    <node id="54965" x="-96.993685" y="32.828555" type="traffic_light" tl="54965"/>
    <node id="54966" x="-96.985634" y="32.828356" type="traffic_light" tl="54966"/>
    <node id="54967" x="-96.993702" y="32.821787" type="traffic_light" tl="54967"/>
    <node id="54968" x="-96.989493" y="32.821789" type="priority"/>
    <node id="54969" x="-96.993746" y="32.815531" type="traffic_light" tl="54969"/>
    <node id="54970" x="-96.989481" y="32.815575" type="traffic_light" tl="54970"/>
    <node id="54985" x="-96.993531" y="32.925721" type="priority"/>
    <node id="54986" x="-96.990522" y="32.925717" type="priority"/>
    <node id="54995" x="-96.993586" y="32.920553" type="traffic_light" tl="54995"/>
    <node id="54996" x="-96.980074" y="32.916333" type="priority"/>
    <node id="54997" x="-96.984724" y="32.911640" type="priority"/>
    <node id="55030" x="-96.993269" y="32.840811" type="traffic_light" tl="55030"/>
    <node id="55031" x="-96.993595" y="32.838675" type="traffic_light" tl="55031"/>
    <node id="55051" x="-96.991497" y="32.878927" type="traffic_light" tl="55051"/>
    <node id="55052" x="-96.997293" y="32.871744" type="priority"/>
    <node id="55053" x="-96.995495" y="32.871822" type="priority"/>
    <node id="55054" x="-96.991553" y="32.876407" type="traffic_light" tl="55054"/>
    <node id="55055" x="-96.992911" y="32.875686" type="priority"/>
    <node id="55056" x="-97.001736" y="32.866417" type="priority"/>
    <node id="55057" x="-96.988104" y="32.837463" type="priority"/>
    <node id="55058" x="-96.994059" y="32.836721" type="priority"/>
    <node id="55059" x="-96.992738" y="32.836727" type="priority"/>
    <node id="55060" x="-96.993193" y="32.875862" type="priority"/>
    <node id="55061" x="-97.001312" y="32.867152" type="priority"/>
    <node id="55062" x="-96.995682" y="32.907997" type="priority"/>
    <node id="55063" x="-96.993514" y="32.837676" type="priority"/>
    <node id="55064" x="-96.992871" y="32.837345" type="priority"/>
    <node id="55065" x="-96.996540" y="32.836890" type="priority"/>
    <node id="55066" x="-96.991250" y="32.836863" type="priority"/>
    <node id="55074" x="-96.995359" y="32.907209" type="priority"/>
    <node id="55075" x="-96.988929" y="32.903445" type="priority"/>
    <node id="55076" x="-96.988600" y="32.903561" type="priority"/>
    <node id="55077" x="-96.998657" y="32.909614" type="priority"/>
    <node id="55078" x="-96.993652" y="32.834836" type="traffic_light" tl="55078"/>
    <node id="55079" x="-96.990720" y="32.835082" type="priority"/>
    <node id="55080" x="-96.996316" y="32.836278" type="priority"/>
    <node id="55081" x="-96.985600" y="32.837058" type="priority"/>
    <node id="55082" x="-96.994457" y="32.837078" type="priority"/>
    <node id="55083" x="-96.994505" y="32.837276" type="priority"/>
    <node id="55084" x="-96.987879" y="32.833730" type="priority"/>
    <node id="55089" x="-96.992079" y="32.904675" type="traffic_light" tl="55089"/>
    <node id="55090" x="-96.993548" y="32.836264" type="priority"/>
    <node id="55091" x="-96.993547" y="32.835366" type="priority"/>
    <node id="55092" x="-96.987311" y="32.836867" type="priority"/>
    <node id="55094" x="-96.987733" y="32.922789" type="priority"/>
    <node id="55095" x="-96.993531" y="32.924485" type="traffic_light" tl="55095"/>
    <node id="55096" x="-96.991299" y="32.923091" type="priority"/>
    <node id="55097" x="-96.999568" y="32.926275" type="priority"/>
    <node id="55099" x="-96.999967" y="32.925865" type="priority"/>
    <node id="55100" x="-96.989911" y="32.922234" type="priority"/>
    <node id="55103" x="-96.993540" y="32.922519" type="traffic_light" tl="55103"/>
    <node id="55104" x="-96.986571" y="32.921002" type="priority"/>
    <node id="55125" x="-96.993626" y="32.912445" type="traffic_light" tl="55125"/>
    <node id="55149" x="-97.022268" y="32.923589" type="dead_end"/>
    <node id="55178" x="-97.008145" y="32.817196" type="priority"/>
    <node id="55181" x="-96.987351" y="32.888720" type="priority"/>
    <node id="55182" x="-97.040476" y="32.904796" type="priority"/>
    <node id="55197" x="-96.984126" y="32.951129" type="priority"/>
    <node id="55198" x="-97.053976" y="32.933571" type="priority"/>
    <node id="55472" x="-97.078354" y="32.932700" type="traffic_light" tl="55472"/>
    <node id="60628" x="-97.064838" y="32.903770" type="priority"/>
    <node id="60629" x="-97.059994" y="32.881237" type="traffic_light" tl="60629"/>
    <node id="60639" x="-97.039839" y="32.890487" type="priority"/>
    <node id="60640" x="-97.039759" y="32.904805" type="priority"/>
    <node id="60641" x="-97.040946" y="32.904790" type="priority"/>
    <node id="60642" x="-97.041042" y="32.890497" type="priority"/>
    <node id="60689" x="-97.099746" y="32.899231" type="priority"/>
    <node id="60690" x="-97.099779" y="32.893435" type="traffic_light" tl="60690"/>
    <node id="60691" x="-97.099328" y="32.896553" type="priority"/>
    <node id="60692" x="-97.094985" y="32.900961" type="priority"/>
    <node id="60693" x="-97.083770" y="32.892090" type="priority"/>
    <node id="60694" x="-97.092576" y="32.899728" type="priority"/>
    <node id="60695" x="-97.085328" y="32.894315" type="priority"/>
    <node id="60696" x="-97.085780" y="32.895144" type="priority"/>
    <node id="60697" x="-97.092020" y="32.899695" type="priority"/>
    <node id="60698" x="-97.083601" y="32.893972" type="priority"/>
    <node id="60699" x="-97.093905" y="32.901653" type="priority"/>
    <node id="60700" x="-97.098587" y="32.898178" type="priority"/>
    <node id="60701" x="-97.099001" y="32.901173" type="priority"/>
    <node id="60702" x="-97.099287" y="32.899693" type="priority"/>
    <node id="60703" x="-97.082315" y="32.902266" type="priority"/>
    <node id="60704" x="-97.082284" y="32.893010" type="traffic_light" tl="60704"/>
    <node id="60705" x="-97.043217" y="32.905394" type="priority"/>
    <node id="60706" x="-97.043505" y="32.897836" type="priority"/>
    <node id="60707" x="-97.038080" y="32.897525" type="priority"/>
    <node id="60708" x="-97.037658" y="32.905319" type="priority"/>
    <node id="60709" x="-97.099009" y="32.898594" type="priority"/>
    <node id="60710" x="-97.098548" y="32.902802" type="priority"/>
    <node id="60711" x="-97.052252" y="32.819642" type="priority"/>
    <node id="61498" x="-97.060756" y="32.828078" type="priority"/>
    <node id="61499" x="-97.055647" y="32.828722" type="priority"/>
    <node id="61500" x="-97.057152" y="32.871641" type="priority"/>
    <node id="61501" x="-97.063236" y="32.867182" type="traffic_light" tl="61501"/>
    <node id="61502" x="-97.054975" y="32.868457" type="traffic_light" tl="61502"/>
    <node id="61503" x="-97.013009" y="32.836019" type="priority"/>
    <node id="61504" x="-97.013060" y="32.833213" type="priority"/>
    <node id="61505" x="-97.009559" y="32.836024" type="traffic_light" tl="61505"/>
    <node id="61506" x="-97.009560" y="32.833126" type="traffic_light" tl="61506"/>
    <node id="61507" x="-97.022064" y="32.836299" type="traffic_light" tl="61507"/>
    <node id="61508" x="-97.022730" y="32.832461" type="priority"/>
    <node id="61509" x="-97.072538" y="32.836784" type="priority"/>
    <node id="61510" x="-97.069496" y="32.832069" type="right_before_left"/>
    <node id="61511" x="-97.048952" y="32.834125" type="traffic_light" tl="61511"/>
    <node id="61512" x="-97.042641" y="32.832460" type="priority"/>
    <node id="61513" x="-97.099655" y="32.828826" type="traffic_light" tl="61513"/>
    <node id="61514" x="-97.091259" y="32.833607" type="traffic_light" tl="61514"/>
    <node id="61515" x="-97.099834" y="32.837254" type="traffic_light" tl="61515"/>
    <node id="61516" x="-97.099681" y="32.831714" type="traffic_light" tl="61516"/>
    <node id="61526" x="-97.048958" y="32.828976" type="traffic_light" tl="61526"/>
    <node id="61527" x="-97.082610" y="32.837274" type="traffic_light" tl="61527"/>
    <node id="61528" x="-97.082326" y="32.822381" type="priority"/>
    <node id="61531" x="-97.069404" y="32.834514" type="right_before_left"/>
    <node id="61532" x="-97.060161" y="32.832284" type="priority"/>
    <node id="61533" x="-97.056495" y="32.833103" type="priority"/>
    <node id="61534" x="-97.030314" y="32.834204" type="priority"/>
    <node id="61535" x="-97.028863" y="32.828706" type="priority"/>
    <node id="61536" x="-97.060138" y="32.834765" type="priority"/>
    <node id="61537" x="-97.057423" y="32.838039" type="priority"/>
    <node id="61538" x="-97.062077" y="32.834189" type="priority"/>
    <node id="61539" x="-97.062089" y="32.832337" type="priority"/>
    <node id="61540" x="-97.061095" y="32.832623" type="priority"/>
    <node id="61542" x="-97.059502" y="32.818365" type="dead_end"/>
    <node id="61543" x="-97.060152" y="32.818952" type="dead_end"/>
    <node id="61551" x="-97.060449" y="32.833421" type="priority"/>
    <node id="61552" x="-97.058731" y="32.835227" type="priority"/>
    <node id="61553" x="-97.058792" y="32.835719" type="priority"/>
    <node id="61554" x="-97.063385" y="32.837226" type="priority"/>
    <node id="61555" x="-97.056481" y="32.837872" type="priority"/>
    <node id="61556" x="-97.056021" y="32.839636" type="priority"/>
    <node id="61557" x="-97.061210" y="32.839053" type="priority"/>
    <node id="61558" x="-97.055960" y="32.840336" type="priority"/>
    <node id="61559" x="-97.061711" y="32.835745" type="priority"/>
    <node id="61560" x="-97.061270" y="32.833115" type="priority"/>
    <node id="61561" x="-97.052216" y="32.838370" type="priority"/>
    <node id="61562" x="-97.060524" y="32.838239" type="priority"/>
    <node id="61563" x="-97.020561" y="32.836584" type="priority"/>
    <node id="61564" x="-97.017007" y="32.833315" type="priority"/>
    <node id="61565" x="-97.016612" y="32.832759" type="priority"/>
    <node id="61566" x="-97.016584" y="32.839114" type="priority"/>
    <node id="61567" x="-97.006706" y="32.837073" type="priority"/>
    <node id="61568" x="-97.017052" y="32.828881" type="priority"/>
    <node id="61569" x="-97.016791" y="32.828402" type="priority"/>
    <node id="61570" x="-97.025981" y="32.837116" type="priority"/>
    <node id="61571" x="-97.010111" y="32.836885" type="priority"/>
    <node id="61572" x="-97.054682" y="32.838556" type="priority"/>
    <node id="61573" x="-97.061118" y="32.835411" type="priority"/>
    <node id="61574" x="-97.056385" y="32.840690" type="priority"/>
    <node id="61575" x="-97.061021" y="32.843777" type="priority"/>
    <node id="61576" x="-97.058626" y="32.840729" type="priority"/>
    <node id="61577" x="-97.060861" y="32.842264" type="priority"/>
    <node id="61578" x="-97.063568" y="32.836437" type="priority"/>
    <node id="61579" x="-97.061285" y="32.829685" type="priority"/>
    <node id="61580" x="-97.056429" y="32.839366" type="priority"/>
    <node id="61581" x="-97.060689" y="32.837307" type="priority"/>
    <node id="61582" x="-97.061251" y="32.835920" type="priority"/>
    <node id="61584" x="-97.060735" y="32.822384" type="traffic_light" tl="61584"/>
    <node id="61585" x="-97.055970" y="32.822353" type="traffic_light" tl="61585"/>
    <node id="61586" x="-97.017004" y="32.835644" type="priority"/>
    <node id="61588" x="-97.099643" y="32.822419" type="traffic_light" tl="61588"/>
    <node id="61589" x="-97.099672" y="32.816784" type="traffic_light" tl="61589"/>
    <node id="61590" x="-97.082352" y="32.819717" type="traffic_light" tl="61590"/>
    <node id="61613" x="-97.099659" y="32.827171" type="priority"/>
    <node id="61632" x="-97.070885" y="32.823284" type="priority"/>
    <node id="61633" x="-97.070554" y="32.822163" type="traffic_light" tl="61633"/>
    <node id="61634" x="-97.061818" y="32.822312" type="traffic_light" tl="61634"/>
    <node id="61635" x="-97.061327" y="32.827087" type="priority"/>
    <node id="61636" x="-97.061802" y="32.823777" type="priority"/>
    <node id="61637" x="-97.061063" y="32.826240" type="priority"/>
    <node id="61638" x="-97.060755" y="32.823191" type="priority"/>
    <node id="61639" x="-97.061074" y="32.829349" type="priority"/>
    <node id="61640" x="-97.099728" y="32.866221" type="traffic_light" tl="61640"/>
    <node id="61641" x="-97.095291" y="32.867649" type="traffic_light" tl="61641"/>
    <node id="61642" x="-97.069756" y="32.867755" type="priority"/>
    <node id="61643" x="-97.068400" y="32.859454" type="priority"/>
    <node id="61644" x="-97.073770" y="32.870193" type="traffic_light" tl="61644"/>
    <node id="61645" x="-97.073866" y="32.858944" type="traffic_light" tl="61645"/>
    <node id="61646" x="-97.083105" y="32.869534" type="traffic_light" tl="61646"/>
    <node id="61647" x="-97.082458" y="32.859027" type="traffic_light" tl="61647"/>
    <node id="61648" x="-97.099952" y="32.852033" type="traffic_light" tl="61648"/>
    <node id="61649" x="-97.090670" y="32.851816" type="priority"/>
    <node id="61650" x="-97.099854" y="32.844146" type="traffic_light" tl="61650"/>
    <node id="61651" x="-97.091347" y="32.845846" type="right_before_left"/>
    <node id="61652" x="-97.091848" y="32.840910" type="right_before_left"/>
    <node id="61653" x="-97.090691" y="32.838021" type="traffic_light" tl="61653"/>
    <node id="61654" x="-97.092795" y="32.859149" type="priority"/>
    <node id="61655" x="-97.090308" y="32.859125" type="right_before_left"/>
    <node id="61656" x="-97.095319" y="32.881172" type="traffic_light" tl="61656"/>
    <node id="61657" x="-97.090918" y="32.881130" type="traffic_light" tl="61657"/>
    <node id="61658" x="-97.090743" y="32.868507" type="traffic_light" tl="61658"/>
    <node id="61661" x="-97.100162" y="32.872319" type="dead_end"/>
    <node id="61664" x="-97.100457" y="32.869643" type="priority"/>
    <node id="61665" x="-97.087319" y="32.838120" type="priority"/>
    <node id="61666" x="-97.093946" y="32.837715" type="priority"/>
    <node id="61667" x="-97.091431" y="32.837991" type="priority"/>
    <node id="61668" x="-97.094500" y="32.837543" type="priority"/>
    <node id="61669" x="-97.088333" y="32.837772" type="priority"/>
    <node id="61670" x="-97.099801" y="32.869713" type="priority"/>
    <node id="61671" x="-97.100867" y="32.871882" type="priority"/>
    <node id="61672" x="-97.101645" y="32.869848" type="dead_end"/>
    <node id="61674" x="-97.100987" y="32.866141" type="traffic_light" tl="61674"/>
    <node id="61675" x="-97.067750" y="32.867295" type="traffic_light" tl="61675"/>
    <node id="61676" x="-97.065642" y="32.864767" type="priority"/>
    <node id="61677" x="-97.064146" y="32.862036" type="priority"/>
    <node id="61678" x="-97.065318" y="32.867468" type="priority"/>
    <node id="61679" x="-97.063663" y="32.864145" type="priority"/>
    <node id="61680" x="-97.065802" y="32.867584" type="priority"/>
    <node id="61681" x="-97.064564" y="32.862415" type="priority"/>
    <node id="61682" x="-97.099059" y="32.838049" type="priority"/>
    <node id="61683" x="-97.091586" y="32.837266" type="priority"/>
    <node id="61684" x="-97.090749" y="32.837238" type="traffic_light" tl="61684"/>
    <node id="61685" x="-97.096493" y="32.888886" type="priority"/>
    <node id="61686" x="-97.091017" y="32.888887" type="right_before_left"/>
    <node id="61687" x="-97.098530" y="32.893437" type="traffic_light" tl="61687"/>
    <node id="61702" x="-97.095764" y="32.837716" type="priority"/>
    <node id="61725" x="-97.099804" y="32.841127" type="traffic_light" tl="61725"/>
    <node id="61726" x="-97.099268" y="32.837267" type="priority"/>
    <node id="61727" x="-97.096162" y="32.837544" type="priority"/>
    <node id="61728" x="-97.099844" y="32.838038" type="traffic_light" tl="61728"/>
    <node id="61729" x="-97.101517" y="32.837292" type="dead_end"/>
    <node id="61730" x="-97.101454" y="32.838221" type="dead_end"/>
    <node id="61731" x="-97.099797" y="32.860812" type="priority"/>
    <node id="61732" x="-97.097715" y="32.860266" type="right_before_left"/>
    <node id="61733" x="-97.099861" y="32.859217" type="traffic_light" tl="61733"/>
    <node id="61736" x="-97.095677" y="32.859172" type="priority"/>
    <node id="61739" x="-97.096950" y="32.884425" type="priority"/>
    <node id="61740" x="-97.099386" y="32.886383" type="priority"/>
    <node id="61741" x="-97.099797" y="32.882402" type="priority"/>
    <node id="61742" x="-97.099819" y="32.888183" type="priority"/>
    <node id="61743" x="-97.098611" y="32.882560" type="priority"/>
    <node id="61744" x="-97.099079" y="32.886122" type="priority"/>
    <node id="61745" x="-97.099356" y="32.880303" type="priority"/>
    <node id="61746" x="-97.099308" y="32.874833" type="priority"/>
    <node id="61747" x="-97.098600" y="32.884492" type="priority"/>
    <node id="61750" x="-97.099825" y="32.881358" type="traffic_light" tl="61750"/>
    <node id="61751" x="-97.098633" y="32.881329" type="traffic_light" tl="61751"/>
    <node id="61752" x="-97.095567" y="32.874499" type="priority"/>
    <node id="61753" x="-97.099791" y="32.872257" type="priority"/>
    <node id="61754" x="-97.098773" y="32.875546" type="priority"/>
    <node id="61755" x="-97.099753" y="32.876572" type="priority"/>
    <node id="61756" x="-97.099983" y="32.874097" type="priority"/>
    <node id="61757" x="-97.099954" y="32.878379" type="priority"/>
    <node id="61758" x="-97.098626" y="32.879643" type="traffic_light" tl="61758"/>
    <node id="61759" x="-97.099067" y="32.887873" type="priority"/>
    <node id="61760" x="-97.098527" y="32.891520" type="priority"/>
    <node id="61761" x="-97.099785" y="32.891880" type="priority"/>
    <node id="61762" x="-97.099375" y="32.889015" type="priority"/>
    <node id="61763" x="-97.098622" y="32.888883" type="priority"/>
    <node id="61764" x="-97.099045" y="32.891733" type="priority"/>
    <node id="61765" x="-97.099054" y="32.894231" type="priority"/>
    <node id="61766" x="-97.098597" y="32.897614" type="priority"/>
    <node id="61767" x="-97.082530" y="32.851850" type="traffic_light" tl="61767"/>
    <node id="61768" x="-97.072641" y="32.851687" type="traffic_light" tl="61768"/>
    <node id="61769" x="-97.069238" y="32.851688" type="traffic_light" tl="61769"/>
    <node id="61770" x="-97.067348" y="32.845090" type="priority"/>
    <node id="61771" x="-97.072732" y="32.846619" type="priority"/>
    <node id="61772" x="-97.090287" y="32.845648" type="right_before_left"/>
    <node id="61773" x="-97.082584" y="32.844031" type="traffic_light" tl="61773"/>
    <node id="61774" x="-97.064610" y="32.858521" type="priority"/>
    <node id="61775" x="-97.063059" y="32.847617" type="priority"/>
    <node id="61776" x="-97.082620" y="32.839423" type="priority"/>
    <node id="61777" x="-97.073442" y="32.838655" type="priority"/>
    <node id="61778" x="-97.072342" y="32.837733" type="priority"/>
    <node id="61779" x="-97.077511" y="32.837252" type="priority"/>
    <node id="61780" x="-97.070603" y="32.837258" type="priority"/>
    <node id="61781" x="-97.076688" y="32.838036" type="priority"/>
    <node id="61782" x="-97.078817" y="32.838182" type="priority"/>
    <node id="61783" x="-97.070255" y="32.837038" type="priority"/>
    <node id="61784" x="-97.061585" y="32.845610" type="priority"/>
    <node id="61785" x="-97.062446" y="32.850555" type="priority"/>
    <node id="61786" x="-97.062646" y="32.847673" type="priority"/>
    <node id="61787" x="-97.064178" y="32.856047" type="priority"/>
    <node id="61788" x="-97.065153" y="32.851633" type="traffic_light" tl="61788"/>
    <node id="61789" x="-97.064348" y="32.849742" type="priority"/>
    <node id="61790" x="-97.075047" y="32.837105" type="priority"/>
    <node id="61791" x="-97.087991" y="32.835558" type="traffic_light" tl="61791"/>
    <node id="61792" x="-97.082611" y="32.839057" type="traffic_light" tl="61792"/>
    <node id="61793" x="-97.084945" y="32.838941" type="priority"/>
    <node id="61794" x="-97.084640" y="32.838264" type="priority"/>
    <node id="61795" x="-97.082621" y="32.838421" type="traffic_light" tl="61795"/>
    <node id="61796" x="-97.090614" y="32.833981" type="traffic_light" tl="61796"/>
    <node id="61797" x="-97.086278" y="32.859095" type="priority"/>
    <node id="61798" x="-97.069467" y="32.839007" type="right_before_left"/>
    <node id="61799" x="-97.062870" y="32.845362" type="traffic_light" tl="61799"/>
    <node id="61800" x="-97.061891" y="32.843501" type="priority"/>
    <node id="61801" x="-97.061448" y="32.841123" type="priority"/>
    <node id="61802" x="-97.069109" y="32.836740" type="priority"/>
    <node id="61803" x="-97.062554" y="32.835310" type="priority"/>
    <node id="61804" x="-97.065269" y="32.837822" type="priority"/>
    <node id="61805" x="-97.069124" y="32.837532" type="priority"/>
    <node id="61806" x="-97.062927" y="32.838379" type="priority"/>
    <node id="61807" x="-97.067249" y="32.837257" type="priority"/>
    <node id="61808" x="-97.067479" y="32.837002" type="priority"/>
    <node id="61809" x="-97.064810" y="32.836733" type="priority"/>
    <node id="61810" x="-97.063728" y="32.837484" type="priority"/>
    <node id="61811" x="-97.062009" y="32.840824" type="priority"/>
    <node id="61812" x="-97.061115" y="32.836916" type="priority"/>
    <node id="61813" x="-97.061396" y="32.843540" type="priority"/>
    <node id="61814" x="-97.061294" y="32.836848" type="priority"/>
    <node id="61815" x="-97.062290" y="32.837093" type="priority"/>
    <node id="61816" x="-97.062935" y="32.847153" type="priority"/>
    <node id="61817" x="-97.064980" y="32.858516" type="priority"/>
    <node id="61818" x="-97.065017" y="32.856209" type="priority"/>
    <node id="61819" x="-97.063132" y="32.853506" type="priority"/>
    <node id="61820" x="-97.062479" y="32.851621" type="traffic_light" tl="61820"/>
    <node id="61821" x="-97.076750" y="32.881063" type="traffic_light" tl="61821"/>
    <node id="61822" x="-97.074957" y="32.881085" type="traffic_light" tl="61822"/>
    <node id="61823" x="-97.082355" y="32.888872" type="right_before_left"/>
    <node id="61824" x="-97.082325" y="32.881101" type="traffic_light" tl="61824"/>
    <node id="61825" x="-97.077429" y="32.885183" type="priority"/>
    <node id="61826" x="-97.074899" y="32.878572" type="priority"/>
    <node id="61827" x="-97.072787" y="32.876980" type="priority"/>
    <node id="61828" x="-97.076362" y="32.882402" type="priority"/>
    <node id="61829" x="-97.080792" y="32.890354" type="priority"/>
    <node id="61830" x="-97.078730" y="32.885204" type="priority"/>
    <node id="61831" x="-97.077329" y="32.883275" type="priority"/>
    <node id="61832" x="-97.073443" y="32.877316" type="priority"/>
    <node id="61833" x="-97.083054" y="32.872077" type="traffic_light" tl="61833"/>
    <node id="61834" x="-97.082788" y="32.892676" type="priority"/>
    <node id="61835" x="-97.078483" y="32.887149" type="priority"/>
    <node id="61836" x="-97.082304" y="32.890690" type="traffic_light" tl="61836"/>
    <node id="61837" x="-97.081714" y="32.890845" type="priority"/>
    <node id="61838" x="-97.080825" y="32.889020" type="priority"/>
    <node id="61839" x="-97.073751" y="32.877028" type="priority"/>
    <node id="61840" x="-97.066705" y="32.867269" type="priority"/>
    <node id="61841" x="-97.068394" y="32.872016" type="priority"/>
    <node id="61842" x="-97.069133" y="32.872294" type="priority"/>
    <node id="61843" x="-97.068022" y="32.869795" type="priority"/>
    <node id="61844" x="-97.066574" y="32.870572" type="priority"/>
    <node id="61845" x="-97.074000" y="32.879297" type="priority"/>
    <node id="61846" x="-97.064753" y="32.867220" type="priority"/>
    <node id="61847" x="-97.030536" y="32.816292" type="traffic_light" tl="61847"/>
    <node id="61848" x="-97.020207" y="32.816113" type="priority"/>
    <node id="61901" x="-97.046578" y="32.819701" type="priority"/>
    <node id="61902" x="-97.041865" y="32.819600" type="priority"/>
    <node id="61903" x="-97.037930" y="32.828162" type="priority"/>
    <node id="61904" x="-97.036576" y="32.818315" type="priority"/>
    <node id="61906" x="-97.046610" y="32.822168" type="priority"/>
    <node id="61907" x="-97.039368" y="32.821049" type="priority"/>
    <node id="61908" x="-97.030486" y="32.822059" type="priority"/>
    <node id="61910" x="-97.048957" y="32.822217" type="traffic_light" tl="61910"/>
    <node id="61911" x="-97.053138" y="32.822304" type="traffic_light" tl="61911"/>
    <node id="61912" x="-97.029997" y="32.827399" type="traffic_light" tl="61912"/>
    <node id="61913" x="-97.037842" y="32.822253" type="priority"/>
    <node id="61914" x="-97.034049" y="32.822375" type="priority"/>
    <node id="61925" x="-97.010836" y="32.823744" type="traffic_light" tl="61925"/>
    <node id="61927" x="-97.017711" y="32.815892" type="traffic_light" tl="61927"/>
    <node id="61928" x="-97.002389" y="32.815686" type="priority"/>
    <node id="61929" x="-96.993719" y="32.817161" type="priority"/>
    <node id="61930" x="-97.002428" y="32.817274" type="right_before_left"/>
    <node id="61931" x="-97.004088" y="32.821709" type="right_before_left"/>
    <node id="61932" x="-97.017810" y="32.819357" type="dead_end"/>
    <node id="61933" x="-97.018000" y="32.820578" type="dead_end"/>
    <node id="61935" x="-97.018887" y="32.815999" type="traffic_light" tl="61935"/>
    <node id="61939" x="-97.017958" y="32.823910" type="traffic_light" tl="61939"/>
    <node id="61940" x="-97.016952" y="32.823910" type="traffic_light" tl="61940"/>
    <node id="61941" x="-97.016956" y="32.826791" type="priority"/>
    <node id="61942" x="-97.017179" y="32.827613" type="priority"/>
    <node id="61943" x="-97.013270" y="32.824561" type="traffic_light" tl="61943"/>
    <node id="61946" x="-97.004168" y="32.830704" type="priority"/>
    <node id="61947" x="-97.002453" y="32.821898" type="traffic_light" tl="61947"/>
    <node id="61948" x="-97.015230" y="32.867275" type="traffic_light" tl="61948"/>
    <node id="61949" x="-97.003516" y="32.866134" type="traffic_light" tl="61949"/>
    <node id="61950" x="-97.043992" y="32.862135" type="priority"/>
    <node id="61951" x="-97.021196" y="32.857049" type="traffic_light" tl="61951"/>
    <node id="61952" x="-97.028185" y="32.853429" type="priority"/>
    <node id="61953" x="-97.030800" y="32.861994" type="traffic_light" tl="61953"/>
    <node id="61954" x="-97.017688" y="32.868915" type="traffic_light" tl="61954"/>
    <node id="61955" x="-97.041174" y="32.869272" type="priority"/>
    <node id="61956" x="-97.041121" y="32.866094" type="priority"/>
    <node id="61957" x="-97.022064" y="32.837909" type="traffic_light" tl="61957"/>
    <node id="61958" x="-97.029854" y="32.837344" type="priority"/>
    <node id="61959" x="-96.998269" y="32.870571" type="priority"/>
    <node id="61960" x="-97.001746" y="32.865809" type="traffic_light" tl="61960"/>
    <node id="61961" x="-96.997847" y="32.869290" type="priority"/>