<?xml version="1.0" encoding="UTF-8"?>

<!-- generated on Tue Mar 12 11:15:54 2019 by Eclipse SUMO netconvert Version 3f89da43
<configuration xmlns:xsi="http://www.w3.org/2001/XMLSchema-instance" xsi:noNamespaceSchemaLocation="http://sumo.dlr.de/xsd/netconvertConfiguration.xsd">

    <input>
        <sumo-net-file value="net.net.xml"/>
    </input>

    <output>
        <plain-output-prefix value="dfw"/>
    </output>

    <projection>
        <proj.plain-geo value="true"/>
    </projection>

    <processing>
        <geometry.max-grade.fix value="false"/>
        <offset.disable-normalization value="true"/>
        <lefthand value="false"/>
    </processing>

    <junctions>
        <no-turnarounds value="true"/>
        <junctions.corner-detail value="5"/>
        <junctions.limit-turn-speed value="5.5"/>
        <rectangular-lane-cut value="false"/>
    </junctions>

    <pedestrian>
        <walkingareas value="false"/>
    </pedestrian>

</configuration>
-->

<edges version="1.1" xmlns:xsi="http://www.w3.org/2001/XMLSchema-instance" xsi:noNamespaceSchemaLocation="http://sumo.dlr.de/xsd/edges_file.xsd">
    <edge id="-106351" from="60640" to="55182" priority="0" numLanes="2" speed="6.71" shape="-97.039759,32.904805 -97.039891,32.904803 -97.040476,32.904796"/>
    <edge id="-106916" from="61797" to="61655" priority="0" numLanes="2" speed="13.41" shape="-97.086278,32.859095 -97.088164,32.859113 -97.089636,32.859124 -97.090308,32.859125"/>
    <edge id="-106917" from="61647" to="61797" priority="0" numLanes="2" speed="13.41" shape="-97.082458,32.859027 -97.084038,32.859093 -97.086278,32.859095"/>
    <edge id="-107877" from="62347" to="62346" priority="0" numLanes="4" speed="20.12" shape="-97.023371,32.921554 -97.023929,32.921999 -97.026534,32.924096 -97.026904,32.924349 -97.027253,32.924542 -97.027666,32.924736 -97.028037,32.924876 -97.028449,32.925012 -97.028858,32.925129"/>
    <edge id="-107878" from="62471" to="62347" priority="0" numLanes="4" speed="20.12" shape="-97.021469,32.919971 -97.022514,32.920830 -97.022834,32.921101 -97.023371,32.921554"/>
    <edge id="-107879" from="62346" to="62393" priority="0" numLanes="4" speed="20.12" shape="-97.028858,32.925129 -97.029384,32.925258 -97.029963,32.925384 -97.030719,32.925515 -97.031319,32.925601 -97.031985,32.925710 -97.032631,32.925756 -97.032654,32.925758 -97.032954,32.925768 -97.033356,32.925794 -97.034012,32.925826 -97.034500,32.925886 -97.034776,32.925958 -97.035337,32.926093 -97.035864,32.926201 -97.036137,32.926244 -97.036479,32.926263"/>
    <edge id="-107880" from="62393" to="62401" priority="0" numLanes="4" speed="20.12" shape="-97.036479,32.926263 -97.037720,32.926288 -97.039204,32.926296"/>
    <edge id="-107881" from="62401" to="62381" priority="0" numLanes="4" speed="20.12"/>
    <edge id="-107882" from="62381" to="62122" priority="0" numLanes="4" speed="20.12"/>
    <edge id="-107883" from="62122" to="62121" priority="0" numLanes="4" speed="17.88" shape="-97.044116,32.926231 -97.045009,32.926183 -97.046753,32.926153 -97.047560,32.926094 -97.048331,32.925974 -97.049221,32.925745 -97.051428,32.925138 -97.053302,32.924610 -97.055426,32.923992 -97.056292,32.923723 -97.056873,32.923365 -97.057312,32.922976 -97.057787,32.922279 -97.057901,32.921931 -97.058004,32.921828 -97.058106,32.921691 -97.058307,32.921340 -97.058552,32.920952 -97.058711,32.920685 -97.058915,32.920407 -97.059140,32.920109 -97.059303,32.919953 -97.059542,32.919715 -97.059782,32.919512"/>
    <edge id="-107886" from="62259" to="62258" priority="0" numLanes="4" speed="20.12" shape="-97.067580,32.917654 -97.067578,32.916591 -97.067578,32.916336 -97.067578,32.915452 -97.067578,32.915176 -97.067579,32.914875 -97.067566,32.913580 -97.067571,32.912686"/>
    <edge id="-107887" from="62258" to="62260" priority="0" numLanes="2" speed="17.88" shape="-97.067571,32.912686 -97.067756,32.912676 -97.069679,32.912682 -97.070272,32.912693 -97.070786,32.912700 -97.070932,32.912713 -97.071095,32.912745 -97.071320,32.912824 -97.071521,32.912932 -97.071677,32.913063 -97.071823,32.913223 -97.071898,32.913350 -97.071948,32.913462 -97.071981,32.913575 -97.071998,32.913855 -97.071996,32.914211 -97.072031,32.914447 -97.072066,32.914537 -97.072132,32.914655 -97.072239,32.914778 -97.072338,32.914873 -97.072522,32.914990 -97.072593,32.915024 -97.072789,32.915116 -97.072942,32.915153 -97.074095,32.915184 -97.075434,32.915209 -97.077175,32.915206 -97.077319,32.915223 -97.077531,32.915281 -97.077701,32.915348 -97.077933,32.915483 -97.078015,32.915551 -97.078079,32.915604 -97.078148,32.915682 -97.078235,32.915805 -97.078304,32.915968 -97.078339,32.916103 -97.078367,32.916617 -97.078356,32.917432 -97.078304,32.918195"/>
    <edge id="-107894" from="61657" to="61686" priority="0" numLanes="4" speed="13.41" shape="-97.090918,32.881130 -97.090956,32.881225 -97.090962,32.882396 -97.090975,32.883157 -97.091016,32.885183 -97.091025,32.886150 -97.091018,32.886890 -97.091004,32.888067 -97.091017,32.888887"/>
    <edge id="-107901" from="62160" to="62159" priority="0" numLanes="4" speed="17.88" shape="-97.088103,32.941077 -97.088602,32.941078 -97.089743,32.941083 -97.090668,32.941095 -97.094060,32.941125 -97.095291,32.941111 -97.095745,32.941114 -97.096507,32.941125 -97.096997,32.941132 -97.097867,32.941127 -97.098387,32.941124 -97.099352,32.941082"/>
    <edge id="-107902" from="62298" to="62160" priority="0" numLanes="4" speed="17.88" shape="-97.084488,32.941067 -97.087258,32.941086 -97.088103,32.941077"/>
    <edge id="-107903" from="62299" to="62298" priority="0" numLanes="4" speed="17.88" shape="-97.082052,32.941065 -97.083411,32.941069 -97.084295,32.941066 -97.084488,32.941067"/>
    <edge id="-107904" from="62291" to="62299" priority="0" numLanes="4" speed="17.88" shape="-97.078169,32.941030 -97.078894,32.941058 -97.080271,32.941054 -97.081315,32.941060 -97.082052,32.941065"/>
    <edge id="-107905" from="62291" to="62290" priority="0" numLanes="4" speed="17.88" shape="-97.078169,32.941030 -97.077774,32.941046 -97.077361,32.941043 -97.077100,32.941045 -97.076357,32.941048 -97.074894,32.941041 -97.073364,32.941033"/>
    <edge id="-107906" from="62290" to="62307" priority="0" numLanes="4" speed="20.12" shape="-97.073364,32.941033 -97.071974,32.941039 -97.069610,32.941025 -97.069443,32.941026 -97.067592,32.941016 -97.066928,32.941026 -97.066496,32.941076"/>
    <edge id="-107907" from="62159" to="62161" priority="0" numLanes="6" speed="17.88" shape="-97.099352,32.941082 -97.099319,32.941628 -97.099295,32.942175 -97.099299,32.942725 -97.099302,32.943884 -97.099301,32.944032 -97.099295,32.944637 -97.099282,32.945432 -97.099278,32.945651 -97.099275,32.945762 -97.099277,32.946221 -97.099270,32.946417 -97.099216,32.946929 -97.099202,32.947025 -97.099157,32.947190 -97.098966,32.947790 -97.098726,32.948494 -97.098463,32.949282 -97.098433,32.949399 -97.098352,32.949718 -97.098292,32.950116 -97.098274,32.950355 -97.098278,32.951129 -97.098270,32.951872 -97.098264,32.952185 -97.098256,32.952698 -97.098252,32.952949 -97.098245,32.954653 -97.098253,32.954786"/>
    <edge id="-107908" from="62306" to="62129" priority="0" numLanes="6" speed="20.12" shape="-97.064377,32.939963 -97.064433,32.940024 -97.064559,32.940253 -97.064628,32.940498 -97.064653,32.940937 -97.064633,32.941374"/>
    <edge id="-107911" from="62162" to="62161" priority="0" numLanes="4" speed="15.65" shape="-97.090741,32.954823 -97.091432,32.954814 -97.092330,32.954802 -97.094764,32.954792 -97.095122,32.954790 -97.095644,32.954784 -97.095847,32.954785 -97.096571,32.954787 -97.097296,32.954789 -97.097416,32.954789 -97.098054,32.954787 -97.098253,32.954786"/>
    <edge id="-107912" from="62160" to="62162" priority="0" numLanes="4" speed="13.41" shape="-97.088103,32.941077 -97.088531,32.941581 -97.089035,32.942244 -97.089270,32.942554 -97.090093,32.943582 -97.090256,32.943789 -97.090547,32.944136 -97.090622,32.944295 -97.090659,32.944397 -97.090678,32.944487 -97.090684,32.945173 -97.090693,32.946108 -97.090732,32.947549 -97.090743,32.948202 -97.090726,32.949561 -97.090703,32.951476 -97.090746,32.952680 -97.090729,32.952968 -97.090716,32.953361 -97.090715,32.953564 -97.090714,32.953656 -97.090712,32.953863 -97.090741,32.954823"/>
    <edge id="-107913" from="62301" to="62160" priority="0" numLanes="4" speed="13.41" shape="-97.087501,32.940149 -97.087501,32.940341 -97.087761,32.940624 -97.088103,32.941077"/>
    <edge id="-107914" from="62292" to="62162" priority="0" numLanes="4" speed="15.65" shape="-97.077735,32.946657 -97.078159,32.946560 -97.078688,32.946547 -97.079307,32.946709 -97.079786,32.947006 -97.080126,32.947301 -97.080328,32.947614 -97.080550,32.948140 -97.080534,32.949169 -97.080616,32.949752 -97.080863,32.950143 -97.081204,32.950438 -97.081706,32.950735 -97.082944,32.951001 -97.083424,32.951239 -97.083788,32.951515 -97.084128,32.951849 -97.084353,32.952201 -97.085182,32.953608 -97.085454,32.953863 -97.085772,32.954119 -97.086183,32.954337 -97.087055,32.954522 -97.088686,32.954734 -97.090741,32.954823"/>
    <edge id="-107915" from="62293" to="62292" priority="0" numLanes="4" speed="15.65" shape="-97.073334,32.945868 -97.073496,32.945865 -97.073968,32.945907 -97.074158,32.945935 -97.074314,32.945977 -97.074552,32.946052 -97.075057,32.946197 -97.076080,32.946475 -97.076399,32.946558 -97.076853,32.946630 -97.077194,32.946655 -97.077735,32.946657"/>
    <edge id="-107916" from="62308" to="62293" priority="0" numLanes="4" speed="15.65" shape="-97.064553,32.945911 -97.066082,32.945914 -97.067920,32.945916 -97.069423,32.945916 -97.069841,32.945910 -97.070310,32.945905 -97.070533,32.945900 -97.070642,32.945886 -97.070785,32.945881 -97.071282,32.945890 -97.071897,32.945880 -97.072182,32.945885 -97.073334,32.945868"/>
    <edge id="-107928" from="62412" to="62428" priority="0" numLanes="4" speed="17.88" shape="-97.044621,32.955160 -97.047487,32.955184 -97.047655,32.955208 -97.048046,32.955390"/>
    <edge id="-107929" from="62332" to="62348" priority="0" numLanes="4" speed="17.88" shape="-97.022016,32.954987 -97.022170,32.954979 -97.022237,32.954979 -97.022607,32.954971 -97.028027,32.954974 -97.028185,32.954976 -97.030081,32.954989 -97.032568,32.955006"/>
    <edge id="-107930" from="62486" to="62332" priority="0" numLanes="4" speed="17.88" shape="-97.010698,32.954712 -97.010814,32.954713 -97.011395,32.954715 -97.011445,32.954716 -97.011568,32.954716 -97.011864,32.954718 -97.012130,32.954720 -97.012283,32.954720 -97.012399,32.954721 -97.013174,32.954724 -97.013731,32.954723 -97.014902,32.954723 -97.014954,32.954723 -97.015073,32.954726 -97.015185,32.954729 -97.015302,32.954735 -97.015354,32.954736 -97.015446,32.954743 -97.015527,32.954749 -97.015616,32.954758 -97.015737,32.954768 -97.015783,32.954773 -97.015871,32.954782 -97.016056,32.954804 -97.016087,32.954808 -97.016349,32.954843 -97.016375,32.954849 -97.016801,32.954909 -97.017034,32.954939 -97.017167,32.954954 -97.017361,32.954968 -97.017544,32.954976 -97.017648,32.954976 -97.017700,32.954978 -97.018328,32.954978 -97.018397,32.954978 -97.019522,32.954977 -97.019810,32.954976 -97.020670,32.954975 -97.021202,32.954975 -97.022016,32.954987"/>
    <edge id="-107931" from="62487" to="62486" priority="0" numLanes="2" speed="13.41" shape="-97.006734,32.954706 -97.007948,32.954710 -97.008399,32.954708 -97.010698,32.954712"/>
    <edge id="-107932" from="62493" to="62487" priority="0" numLanes="2" speed="13.41"/>
    <edge id="-107933" from="62480" to="62493" priority="0" numLanes="2" speed="13.41" shape="-96.993407,32.954489 -96.993591,32.954504 -96.995445,32.954532 -96.995686,32.954523 -96.995971,32.954531 -96.996350,32.954540 -96.997113,32.954543 -96.997431,32.954540 -96.997921,32.954557 -96.998081,32.954573 -96.998252,32.954585 -96.998652,32.954633 -96.998749,32.954642 -96.999066,32.954655 -96.999199,32.954661 -97.000112,32.954666 -97.000814,32.954671 -97.001910,32.954669 -97.002606,32.954667 -97.003220,32.954668 -97.003691,32.954684 -97.005250,32.954714"/>
    <edge id="-107934" from="62129" to="62128" priority="0" numLanes="6" speed="22.35" shape="-97.064633,32.941374 -97.064502,32.941415 -97.064314,32.941467 -97.063868,32.941610 -97.063173,32.941936 -97.062825,32.942117 -97.062542,32.942300 -97.062234,32.942513 -97.061880,32.942780 -97.061752,32.942900 -97.061346,32.943278 -97.061142,32.943465 -97.060818,32.943732 -97.060676,32.943850 -97.059960,32.944506 -97.059477,32.944940 -97.058767,32.945578 -97.058728,32.945613 -97.058514,32.945805"/>
    <edge id="-107935" from="62128" to="62124" priority="0" numLanes="6" speed="22.35" shape="-97.058514,32.945805 -97.056942,32.947219 -97.056083,32.948021 -97.055930,32.948164 -97.055292,32.948729 -97.055007,32.948981"/>
    <edge id="-107936" from="62294" to="62130" priority="0" numLanes="4" speed="15.65" shape="-97.064355,32.950933 -97.064016,32.951214 -97.063348,32.951677 -97.062887,32.952006 -97.062404,32.952141"/>
    <edge id="-107937" from="62295" to="62294" priority="0" numLanes="2" speed="13.41" shape="-97.064551,32.947277 -97.064553,32.947746 -97.064541,32.948648 -97.064527,32.949634 -97.064510,32.950685 -97.064355,32.950933"/>
    <edge id="-107938" from="62294" to="62286" priority="0" numLanes="2" speed="13.41" shape="-97.064355,32.950933 -97.064517,32.951271 -97.064530,32.951383 -97.064566,32.951532 -97.064614,32.951654 -97.064746,32.951852 -97.064936,32.952086 -97.064964,32.952133 -97.065174,32.952323 -97.065373,32.952460 -97.066686,32.952475 -97.067922,32.952491 -97.070926,32.952508 -97.071392,32.952499 -97.071708,32.952512 -97.071838,32.952513 -97.071912,32.952520 -97.072108,32.952527 -97.073055,32.952513"/>
    <edge id="-107939" from="62128" to="62130" priority="0" numLanes="4" speed="15.65" shape="-97.058514,32.945805 -97.059161,32.946287 -97.059576,32.946698 -97.059693,32.947243 -97.059693,32.947832 -97.059736,32.948467 -97.060044,32.948896 -97.060364,32.949333 -97.060555,32.949771 -97.060640,32.950280 -97.060885,32.950638 -97.061226,32.951004 -97.062216,32.951835 -97.062404,32.952141"/>
    <edge id="-108023" from="62349" to="62491" priority="0" numLanes="4" speed="17.88" shape="-97.007608,32.937119 -97.007510,32.937667 -97.007436,32.937948 -97.007400,32.938165 -97.007387,32.938405 -97.007392,32.938598 -97.007418,32.938798 -97.007454,32.938945 -97.007496,32.939069 -97.007547,32.939199 -97.007672,32.939489 -97.007755,32.939630"/>
    <edge id="-108024" from="62326" to="62349" priority="0" numLanes="4" speed="17.88" shape="-97.008632,32.932565 -97.008616,32.932638 -97.008592,32.932774 -97.008586,32.932804 -97.008553,32.932952 -97.008415,32.933573 -97.008232,32.934366 -97.008216,32.934465 -97.008149,32.934738 -97.008136,32.934794 -97.008102,32.934941 -97.008049,32.935176 -97.008033,32.935270 -97.007896,32.935876 -97.007608,32.937119"/>
    <edge id="-108025" from="62329" to="62349" priority="0" numLanes="4" speed="13.41" shape="-96.993538,32.929858 -96.996638,32.929888 -96.997165,32.929858 -96.997570,32.929726 -96.998062,32.929578 -96.998712,32.929578 -97.001666,32.929578 -97.002422,32.929593 -97.002967,32.929843 -97.003565,32.930522 -97.004409,32.931658 -97.004813,32.932219 -97.005042,32.932795 -97.005147,32.934123 -97.005270,32.934373 -97.005587,32.934772 -97.006079,32.935332 -97.006150,32.935672 -97.006202,32.935937 -97.006273,32.936174 -97.006361,32.936424 -97.006537,32.936675 -97.006888,32.936926 -97.007608,32.937119"/>
    <edge id="-108048" from="61910" to="61911" priority="0" numLanes="6" speed="17.88" shape="-97.048957,32.822217 -97.049101,32.822218 -97.049285,32.822223 -97.051131,32.822258 -97.053138,32.822304"/>
    <edge id="-108050" from="61585" to="61584" priority="0" numLanes="6" speed="17.88" shape="-97.055970,32.822353 -97.057424,32.822391 -97.057929,32.822401 -97.058890,32.822415 -97.059545,32.822426 -97.059841,32.822426 -97.059936,32.822420 -97.060128,32.822407 -97.060735,32.822384"/>
    <edge id="-108509" from="61972" to="61969" priority="0" numLanes="4" speed="17.88"/>
    <edge id="-108510" from="61973" to="61972" priority="0" numLanes="4" speed="17.88" shape="-97.033282,32.870662 -97.033711,32.870952 -97.034276,32.871426 -97.034798,32.872128 -97.035488,32.872874 -97.035968,32.873172 -97.036438,32.873365 -97.037525,32.873409 -97.039373,32.873397"/>
    <edge id="-108511" from="61954" to="61973" priority="0" numLanes="4" speed="17.88" shape="-97.017688,32.868915 -97.018698,32.869613 -97.020005,32.870236 -97.021662,32.870273 -97.030948,32.870310 -97.032691,32.870420 -97.033282,32.870662"/>
    <edge id="-108576" from="61790" to="61779" priority="0" numLanes="4" speed="17.88"/>
    <edge id="-108578" from="61509" to="61790" priority="0" numLanes="2" speed="17.88" shape="-97.072538,32.836784 -97.072752,32.836785 -97.073201,32.836790 -97.073581,32.836793 -97.074181,32.836799 -97.074557,32.836800 -97.075055,32.836810 -97.075047,32.837105"/>
    <edge id="-108579" from="61802" to="61509" priority="0" numLanes="2" speed="17.88" shape="-97.069109,32.836740 -97.069546,32.836773 -97.069642,32.836774 -97.069873,32.836776 -97.070014,32.836778 -97.070290,32.836780 -97.072538,32.836784"/>
    <edge id="-109202" from="62413" to="62412" priority="0" numLanes="4" speed="17.88"/>
    <edge id="-109232" from="62348" to="62437" priority="0" numLanes="4" speed="17.88"/>
    <edge id="-109241" from="62437" to="62413" priority="0" numLanes="4" speed="17.88"/>
    <edge id="-109933" from="61501" to="61846" priority="0" numLanes="4" speed="15.65"/>
    <edge id="-109934" from="61846" to="61840" priority="0" numLanes="5" speed="15.65"/>
    <edge id="-109946" from="67409" to="54997" priority="0" numLanes="6" speed="15.65" shape="-96.981789,32.904476 -96.981810,32.904613 -96.981862,32.905107 -96.981911,32.905831 -96.981890,32.906046 -96.981814,32.906831 -96.981719,32.907523 -96.981676,32.907847 -96.981676,32.907857 -96.981682,32.908144 -96.981719,32.908375 -96.981719,32.908381 -96.981786,32.908668 -96.981786,32.908678 -96.981896,32.908981 -96.981945,32.909079 -96.982012,32.909233 -96.982018,32.909243 -96.982493,32.910011 -96.982702,32.910366 -96.982709,32.910381 -96.982812,32.910525 -96.982898,32.910648 -96.982904,32.910653 -96.982941,32.910710 -96.982999,32.910764 -96.983047,32.910809 -96.983085,32.910858 -96.983095,32.910864 -96.983221,32.910989 -96.983227,32.910997 -96.983339,32.911106 -96.983641,32.911282 -96.983917,32.911408 -96.984071,32.911474 -96.984198,32.911504 -96.984570,32.911615 -96.984646,32.911629 -96.984724,32.911640"/>
    <edge id="-112285" from="66688" to="66717" priority="0" numLanes="2" speed="13.41" shape="-96.986723,32.850848 -96.986696,32.851074 -96.986637,32.851326 -96.986564,32.851445 -96.986500,32.851517 -96.986297,32.851749 -96.986183,32.851910 -96.986087,32.852059 -96.985996,32.852228 -96.985882,32.852442 -96.985782,32.852729 -96.985741,32.852897 -96.985677,32.853226 -96.985509,32.854102 -96.985358,32.854874 -96.985304,32.855138 -96.985304,32.855295 -96.985340,32.855448 -96.985497,32.855888 -96.985533,32.855988 -96.985567,32.856085"/>
    <edge id="-112287" from="62097" to="62096" priority="0" numLanes="4" speed="20.12" shape="-97.015982,32.896135 -97.015734,32.896023 -97.015733,32.895841 -97.015731,32.894203 -97.015731,32.894052 -97.015731,32.893756 -97.015731,32.893627 -97.015750,32.891800 -97.015777,32.888399 -97.015764,32.887353 -97.015727,32.884957 -97.015659,32.884853 -97.015628,32.884738 -97.015615,32.884108 -97.015609,32.883216 -97.015610,32.882366 -97.015623,32.880839 -97.015620,32.879544 -97.015633,32.878788 -97.015642,32.878227 -97.015625,32.873342 -97.015692,32.871863 -97.015740,32.871518 -97.015873,32.871067"/>
    <edge id="-112288" from="62096" to="61954" priority="0" numLanes="4" speed="20.12" shape="-97.015873,32.871067 -97.016050,32.870718 -97.016147,32.870538 -97.016268,32.870347 -97.016399,32.870146 -97.016554,32.869946 -97.016751,32.869723 -97.016935,32.869528 -97.017688,32.868915"/>
    <edge id="-112420" from="61739" to="61685" priority="0" numLanes="2" speed="15.65" shape="-97.096950,32.884425 -97.096948,32.884895 -97.096852,32.886182 -97.096529,32.888333 -97.096493,32.888886"/>
    <edge id="-113069" from="67398" to="54986" priority="0" numLanes="2" speed="15.65" shape="-96.985520,32.925188 -96.985930,32.925553 -96.986519,32.925704 -96.987661,32.925713 -96.990522,32.925717"/>
    <edge id="-113081" from="62465" to="62468" priority="0" numLanes="6" speed="15.65"/>
    <edge id="-113090" from="54946" to="55125" priority="0" numLanes="6" speed="20.12"/>
    <edge id="-113094" from="62330" to="62371" priority="0" numLanes="4" speed="13.41" shape="-97.019669,32.940067 -97.022389,32.940141 -97.023154,32.940252 -97.023773,32.940461 -97.024640,32.940946 -97.025577,32.941503 -97.026482,32.941857 -97.028186,32.942433 -97.030354,32.943216 -97.032272,32.943896 -97.032642,32.943961 -97.033003,32.943904 -97.033413,32.943707 -97.034881,32.941916 -97.036616,32.939865 -97.037178,32.939225 -97.037232,32.938872"/>
    <edge id="-113095" from="62372" to="62371" priority="0" numLanes="4" speed="13.41" shape="-97.027251,32.930631 -97.029173,32.930633 -97.029887,32.930925 -97.030443,32.931325 -97.030737,32.931672 -97.030911,32.932008 -97.030979,32.932251 -97.031093,32.932596 -97.031303,32.932952 -97.031514,32.933227 -97.031844,32.933555 -97.032945,32.934346 -97.033806,32.935204 -97.035668,32.937045 -97.037036,32.938385 -97.037188,32.938589 -97.037232,32.938872"/>
    <edge id="-113096" from="62331" to="62373" priority="0" numLanes="4" speed="13.41"/>
    <edge id="-113097" from="62373" to="62372" priority="0" numLanes="4" speed="13.41"/>
    <edge id="-113098" from="62327" to="62374" priority="0" numLanes="4" speed="15.65" shape="-97.009188,32.930128 -97.009790,32.930217 -97.010198,32.930385 -97.010601,32.930797 -97.011310,32.931681 -97.011521,32.932090 -97.011524,32.934758 -97.011711,32.935147 -97.011875,32.935434 -97.012091,32.935702"/>
    <edge id="-113099" from="67407" to="67409" priority="0" numLanes="5" speed="15.65" shape="-96.980691,32.902399 -96.980758,32.902469 -96.980917,32.902600 -96.981107,32.902827 -96.981321,32.903099 -96.981457,32.903272 -96.981461,32.903292 -96.981554,32.903493 -96.981588,32.903574 -96.981642,32.903690 -96.981673,32.903808 -96.981740,32.904077 -96.981789,32.904476"/>
    <edge id="-113694" from="61931" to="61925" priority="0" numLanes="4" speed="13.41" shape="-97.004088,32.821709 -97.004183,32.821690 -97.004495,32.821677 -97.004881,32.821674 -97.005603,32.821671 -97.005972,32.821676 -97.006192,32.821663 -97.006637,32.821666 -97.006844,32.821686 -97.006990,32.821709 -97.007142,32.821752 -97.007199,32.821766 -97.007431,32.821828 -97.007740,32.821949 -97.007763,32.821961 -97.008196,32.822190 -97.008382,32.822300 -97.010186,32.823405 -97.010352,32.823507 -97.010687,32.823726 -97.010836,32.823744"/>
    <edge id="-113695" from="55178" to="61925" priority="0" numLanes="4" speed="15.65" shape="-97.008145,32.817196 -97.008207,32.817439 -97.008249,32.817925 -97.008290,32.818168 -97.008661,32.818775 -97.008909,32.819088 -97.009302,32.819574 -97.009859,32.820007 -97.010458,32.820476 -97.010850,32.820910 -97.011181,32.821535 -97.011284,32.822072 -97.011243,32.822645 -97.011160,32.823079 -97.010836,32.823744"/>
    <edge id="-113699" from="61927" to="61935" priority="0" numLanes="2" speed="17.88"/>
    <edge id="-113710" from="61935" to="61848" priority="0" numLanes="2" speed="17.88"/>
    <edge id="-113711" from="61940" to="61939" priority="0" numLanes="4" speed="13.41"/>
    <edge id="-113717" from="61943" to="61940" priority="0" numLanes="4" speed="13.41" shape="-97.013270,32.824561 -97.014233,32.824315 -97.015467,32.823849 -97.016952,32.823910"/>
    <edge id="-113719" from="61925" to="61943" priority="0" numLanes="4" speed="13.41" shape="-97.010836,32.823744 -97.011599,32.824243 -97.012449,32.824553 -97.013270,32.824561"/>
    <edge id="-114236" from="66743" to="66448" priority="0" numLanes="6" speed="20.12" shape="-96.990951,32.893930 -96.990949,32.894134 -96.990952,32.895092 -96.990954,32.895530 -96.990948,32.895622 -96.990937,32.897370"/>
    <edge id="-114237" from="66747" to="66448" priority="0" numLanes="2" speed="13.41"/>
    <edge id="-114239" from="66447" to="66446" priority="0" numLanes="2" speed="13.41" shape="-96.983404,32.898857 -96.983354,32.899228 -96.983391,32.899600 -96.983514,32.900159 -96.983487,32.900456 -96.983347,32.901012"/>
    <edge id="-114240" from="66747" to="66447" priority="0" numLanes="2" speed="13.41"/>
    <edge id="-114241" from="66744" to="66447" priority="0" numLanes="2" speed="13.41" shape="-96.983173,32.891360 -96.981618,32.892536 -96.980195,32.893336 -96.977993,32.894573 -96.977546,32.894939 -96.977339,32.895494 -96.977394,32.896089 -96.977606,32.896612 -96.978325,32.897048 -96.981252,32.898459 -96.981690,32.898613 -96.982241,32.898620 -96.982724,32.898681 -96.982965,32.898777 -96.983404,32.898857"/>
    <edge id="-114242" from="66448" to="54949" priority="0" numLanes="6" speed="20.12" shape="-96.990937,32.897370 -96.990935,32.897450 -96.990939,32.897608 -96.990933,32.899251 -96.990932,32.899776 -96.990950,32.901006 -96.990990,32.901319 -96.991041,32.901603"/>
    <edge id="-115486" from="60704" to="60703" priority="0" numLanes="4" speed="17.88" shape="-97.082284,32.893010 -97.082230,32.894780 -97.082233,32.895130 -97.082223,32.896201 -97.082196,32.901230 -97.082187,32.901653 -97.082315,32.902266"/>
    <edge id="-115487" from="61686" to="61685" priority="0" numLanes="2" speed="13.41" shape="-97.091017,32.888887 -97.091272,32.888890 -97.092145,32.888877 -97.092455,32.888864 -97.092765,32.888848 -97.093140,32.888831 -97.093401,32.888819 -97.093749,32.888824 -97.094179,32.888855 -97.094713,32.888872 -97.095743,32.888890 -97.096493,32.888886"/>
    <edge id="-115488" from="61686" to="61687" priority="0" numLanes="4" speed="13.41" shape="-97.091017,32.888887 -97.091031,32.889416 -97.091039,32.889710 -97.091082,32.890070 -97.091131,32.890320 -97.091173,32.890451 -97.091214,32.890580 -97.091341,32.890885 -97.091361,32.890933 -97.091503,32.891173 -97.091771,32.891530 -97.091866,32.891623 -97.092008,32.891765 -97.092268,32.892000 -97.092480,32.892166 -97.092821,32.892361 -97.093165,32.892507 -97.093365,32.892591 -97.093537,32.892654 -97.093817,32.892733 -97.094130,32.892793 -97.094452,32.892815 -97.094744,32.892812 -97.095066,32.892811 -97.095650,32.892863 -97.096002,32.892947 -97.096515,32.893141 -97.096787,32.893217 -97.097229,32.893336 -97.097772,32.893437 -97.098365,32.893457 -97.098530,32.893437"/>
    <edge id="-115494" from="61687" to="60690" priority="0" numLanes="4" speed="15.65" shape="-97.098530,32.893437 -97.099053,32.893435 -97.099334,32.893435 -97.099779,32.893435"/>
    <edge id="-115500" from="61685" to="61763" priority="0" numLanes="2" speed="13.41"/>
    <edge id="-115507" from="61836" to="60704" priority="0" numLanes="4" speed="13.41" shape="-97.082304,32.890690 -97.082285,32.891788 -97.082279,32.892490 -97.082284,32.893010"/>
    <edge id="-115516" from="62163" to="55472" priority="0" numLanes="4" speed="17.88" shape="-97.078365,32.929089 -97.078369,32.929195 -97.078360,32.929383 -97.078355,32.930229 -97.078359,32.931275 -97.078354,32.932700"/>
    <edge id="-115517" from="62148" to="62164" priority="0" numLanes="6" speed="20.12" shape="-97.060594,32.924568 -97.060619,32.925393 -97.060662,32.925809 -97.060808,32.926642 -97.060885,32.927293 -97.060885,32.927608 -97.060885,32.927741 -97.060886,32.928102 -97.060861,32.930474 -97.060870,32.932208 -97.060888,32.932381 -97.060927,32.932547"/>
    <edge id="-115518" from="62166" to="62165" priority="0" numLanes="2" speed="13.41" shape="-97.089252,32.939384 -97.089346,32.939253 -97.089488,32.939090 -97.089531,32.939057 -97.089671,32.938948 -97.089936,32.938800 -97.090228,32.938663 -97.090511,32.938563 -97.090799,32.938480 -97.091210,32.938392 -97.091810,32.938278 -97.092880,32.938100 -97.093725,32.937961 -97.093889,32.937940 -97.094026,32.937938 -97.094947,32.937967"/>
    <edge id="-115529" from="62184" to="62183" priority="0" numLanes="4" speed="13.41" shape="-97.084342,32.935528 -97.084969,32.935493 -97.085090,32.935495 -97.085499,32.935510 -97.086428,32.935564 -97.087143,32.935579 -97.087447,32.935583 -97.088086,32.935588 -97.088708,32.935595 -97.089340,32.935592 -97.090702,32.935589 -97.091427,32.935593 -97.091819,32.935596 -97.092510,32.935600 -97.092860,32.935594 -97.093893,32.935583 -97.094152,32.935565 -97.094409,32.935529 -97.094572,32.935491 -97.094821,32.935405 -97.096267,32.934917 -97.096529,32.934812"/>
    <edge id="-115538" from="62193" to="62192" priority="0" numLanes="4" speed="15.65" shape="-97.084577,32.930007 -97.084444,32.930203 -97.084314,32.930576 -97.084267,32.930717 -97.084257,32.930755 -97.084218,32.930913 -97.084202,32.931113 -97.084202,32.931719 -97.084186,32.932291"/>
    <edge id="-115540" from="60703" to="62196" priority="0" numLanes="4" speed="17.88" shape="-97.082315,32.902266 -97.082361,32.902362 -97.082494,32.902527 -97.082650,32.902696 -97.082828,32.902892 -97.083387,32.903415 -97.083741,32.903687 -97.083953,32.903848 -97.084240,32.903992 -97.084560,32.904131 -97.084877,32.904214 -97.085054,32.904255 -97.085249,32.904276 -97.086927,32.904294 -97.088638,32.904320 -97.089280,32.904334 -97.089531,32.904353 -97.089730,32.904389 -97.090004,32.904462 -97.090216,32.904538 -97.090420,32.904626 -97.090688,32.904771 -97.091074,32.904954 -97.091443,32.905040 -97.091750,32.905095 -97.092492,32.905153 -97.093095,32.905184 -97.094256,32.905289 -97.094346,32.905272"/>
    <edge id="-115541" from="62196" to="62197" priority="0" numLanes="4" speed="20.12" shape="-97.094346,32.905272 -97.094328,32.907698 -97.094328,32.909627 -97.094115,32.910451 -97.093555,32.911332 -97.092579,32.912500 -97.091946,32.913350 -97.091385,32.914109 -97.090283,32.914959 -97.089668,32.915384 -97.089089,32.915672 -97.088149,32.915946 -97.087354,32.916386 -97.086848,32.916917 -97.086522,32.917463 -97.086331,32.918237"/>