<?xml version="1.0" encoding="UTF-8"?>

<!-- generated on Tue Mar 12 11:15:54 2019 by Eclipse SUMO netconvert Version 3f89da43
<configuration xmlns:xsi="http://www.w3.org/2001/XMLSchema-instance" xsi:noNamespaceSchemaLocation="http://sumo.dlr.de/xsd/netconvertConfiguration.xsd">

    <input>
        <sumo-net-file value="net.net.xml"/>
    </input>

    <output>
        <plain-output-prefix value="dfw"/>
    </output>

    <projection>
        <proj.plain-geo value="true"/>
    </projection>

    <processing>
        <geometry.max-grade.fix value="false"/>
        <offset.disable-normalization value="true"/>
        <lefthand value="false"/>
    </processing>

    <junctions>
        <no-turnarounds value="true"/>
        <junctions.corner-detail value="5"/>
        <junctions.limit-turn-speed value="5.5"/>
        <rectangular-lane-cut value="false"/>
    </junctions>

    <pedestrian>
        <walkingareas value="false"/>
    </pedestrian>

</configuration>
-->

<connections version="1.1" xmlns:xsi="http://www.w3.org/2001/XMLSchema-instance" xsi:noNamespaceSchemaLocation="http://sumo.dlr.de/xsd/connections_file.xsd">
    <connection from="-106351" to="-118142" fromLane="0" toLane="0"/>
    <connection from="-106351" to="-118495" fromLane="0" toLane="0"/>
    <connection from="-106351" to="-119976" fromLane="0" toLane="0"/>
    <connection from="-106351" to="-119976" fromLane="1" toLane="1"/>
    <connection from="-106351" to="118126" fromLane="1" toLane="1"/>
    <connection from="-106351" to="-99876" fromLane="1" toLane="1"/>
    <connection from="-106351" to="106351" fromLane="1" toLane="1"/>

    <connection from="-106916" to="-94951" fromLane="0" toLane="0"/>
    <connection from="-106916" to="-94951" fromLane="1" toLane="1"/>
    <connection from="-106916" to="83647" fromLane="1" toLane="1"/>
    <connection from="-106916" to="106916" fromLane="1" toLane="1"/>

    <connection from="-106917" to="-106916" fromLane="0" toLane="0"/>
    <connection from="-106917" to="-106916" fromLane="1" toLane="1"/>

    <connection from="-107877" to="-107879" fromLane="0" toLane="0"/>
    <connection from="-107877" to="-107879" fromLane="1" toLane="1"/>
    <connection from="-107877" to="-107879" fromLane="2" toLane="2"/>
    <connection from="-107877" to="-107879" fromLane="3" toLane="3"/>

    <connection from="-107878" to="-107877" fromLane="0" toLane="0"/>
    <connection from="-107878" to="-107877" fromLane="1" toLane="1"/>
    <connection from="-107878" to="-107877" fromLane="2" toLane="2"/>
    <connection from="-107878" to="-107877" fromLane="3" toLane="3"/>

    <connection from="-107879" to="-107880" fromLane="0" toLane="0"/>
    <connection from="-107879" to="-107880" fromLane="1" toLane="1"/>
    <connection from="-107879" to="-107880" fromLane="2" toLane="2"/>
    <connection from="-107879" to="-107880" fromLane="3" toLane="3"/>
    <connection from="-107879" to="107879" fromLane="3" toLane="3"/>

    <connection from="-107880" to="-107881" fromLane="0" toLane="0"/>
    <connection from="-107880" to="-107881" fromLane="1" toLane="1"/>
    <connection from="-107880" to="-107881" fromLane="2" toLane="2"/>
    <connection from="-107880" to="-107881" fromLane="3" toLane="3"/>
    <connection from="-107880" to="107880" fromLane="3" toLane="3"/>

    <connection from="-107881" to="106273" fromLane="0" toLane="0"/>
    <connection from="-107881" to="-107882" fromLane="0" toLane="0"/>
    <connection from="-107881" to="-107882" fromLane="1" toLane="1"/>
    <connection from="-107881" to="-107882" fromLane="2" toLane="2"/>
    <connection from="-107881" to="-107882" fromLane="3" toLane="3"/>
    <connection from="-107881" to="107881" fromLane="3" toLane="3"/>

    <connection from="-107882" to="-107883" fromLane="0" toLane="0"/>
    <connection from="-107882" to="-107883" fromLane="1" toLane="1"/>
    <connection from="-107882" to="-107883" fromLane="2" toLane="2"/>
    <connection from="-107882" to="-107883" fromLane="3" toLane="3"/>
    <connection from="-107882" to="99875" fromLane="3" toLane="1"/>
    <connection from="-107882" to="107882" fromLane="3" toLane="3"/>

    <connection from="-107883" to="-115673" fromLane="0" toLane="0"/>
    <connection from="-107883" to="-115673" fromLane="0" toLane="1"/>
    <connection from="-107883" to="-115674" fromLane="0" toLane="0"/>
    <connection from="-107883" to="-115674" fromLane="1" toLane="1"/>
    <connection from="-107883" to="-115674" fromLane="2" toLane="2"/>
    <connection from="-107883" to="-115674" fromLane="3" toLane="3"/>
    <connection from="-107883" to="107883" fromLane="3" toLane="3"/>

    <connection from="-107886" to="-107887" fromLane="0" toLane="0"/>
    <connection from="-107886" to="83362" fromLane="0" toLane="0"/>
    <connection from="-107886" to="83362" fromLane="1" toLane="1"/>
    <connection from="-107886" to="83362" fromLane="2" toLane="2"/>
    <connection from="-107886" to="83362" fromLane="3" toLane="3"/>
    <connection from="-107886" to="107886" fromLane="3" toLane="3"/>

    <connection from="-107887" to="115623" fromLane="0" toLane="0"/>
    <connection from="-107887" to="-115654" fromLane="0" toLane="1"/>
    <connection from="-107887" to="-115654" fromLane="1" toLane="2"/>
    <connection from="-107887" to="-115654" fromLane="1" toLane="3"/>
    <connection from="-107887" to="-115636" fromLane="1" toLane="3"/>
    <connection from="-107887" to="107887" fromLane="1" toLane="1"/>

    <connection from="-107894" to="83335" fromLane="0" toLane="0"/>
    <connection from="-107894" to="-115488" fromLane="0" toLane="0"/>
    <connection from="-107894" to="-115488" fromLane="1" toLane="1"/>
    <connection from="-107894" to="-115488" fromLane="2" toLane="2"/>
    <connection from="-107894" to="-115488" fromLane="3" toLane="3"/>
    <connection from="-107894" to="-115487" fromLane="3" toLane="1"/>
    <connection from="-107894" to="107894" fromLane="3" toLane="3"/>

    <connection from="-107901" to="-107907" fromLane="0" toLane="0"/>
    <connection from="-107901" to="-107907" fromLane="0" toLane="1"/>
    <connection from="-107901" to="-115600" fromLane="0" toLane="1"/>
    <connection from="-107901" to="-115600" fromLane="1" toLane="2"/>
    <connection from="-107901" to="-115600" fromLane="2" toLane="3"/>
    <connection from="-107901" to="-115600" fromLane="3" toLane="4"/>
    <connection from="-107901" to="-115600" fromLane="3" toLane="5"/>
    <connection from="-107901" to="115599" fromLane="3" toLane="3"/>
    <connection from="-107901" to="107901" fromLane="3" toLane="3"/>

    <connection from="-107902" to="-107912" fromLane="0" toLane="0"/>
    <connection from="-107902" to="-107901" fromLane="0" toLane="0"/>
    <connection from="-107902" to="-107901" fromLane="1" toLane="1"/>
    <connection from="-107902" to="-107901" fromLane="2" toLane="2"/>
    <connection from="-107902" to="-107901" fromLane="3" toLane="3"/>
    <connection from="-107902" to="107913" fromLane="3" toLane="3"/>
    <connection from="-107902" to="107902" fromLane="3" toLane="3"/>

    <connection from="-107903" to="-107902" fromLane="0" toLane="0"/>
    <connection from="-107903" to="-107902" fromLane="1" toLane="1"/>
    <connection from="-107903" to="-107902" fromLane="2" toLane="2"/>
    <connection from="-107903" to="-107902" fromLane="3" toLane="3"/>
    <connection from="-107903" to="83104" fromLane="3" toLane="2"/>
    <connection from="-107903" to="83104" fromLane="3" toLane="3"/>
    <connection from="-107903" to="107903" fromLane="3" toLane="3"/>

    <connection from="-107904" to="-107903" fromLane="0" toLane="0"/>
    <connection from="-107904" to="-107903" fromLane="1" toLane="1"/>
    <connection from="-107904" to="-107903" fromLane="2" toLane="2"/>
    <connection from="-107904" to="-107903" fromLane="3" toLane="3"/>

    <connection from="-107905" to="83103" fromLane="0" toLane="0"/>
    <connection from="-107905" to="-107906" fromLane="0" toLane="0"/>
    <connection from="-107905" to="-107906" fromLane="1" toLane="1"/>
    <connection from="-107905" to="-107906" fromLane="2" toLane="2"/>
    <connection from="-107905" to="-107906" fromLane="3" toLane="3"/>
    <connection from="-107905" to="-83089" fromLane="3" toLane="1"/>
    <connection from="-107905" to="107905" fromLane="3" toLane="3"/>

    <connection from="-107906" to="-83088" fromLane="0" toLane="0"/>
    <connection from="-107906" to="-83088" fromLane="1" toLane="1"/>
    <connection from="-107906" to="-83088" fromLane="2" toLane="2"/>
    <connection from="-107906" to="-83088" fromLane="3" toLane="3"/>

    <connection from="-107907" to="107911" fromLane="0" toLane="0"/>
    <connection from="-107907" to="107911" fromLane="1" toLane="1"/>
    <connection from="-107907" to="107911" fromLane="2" toLane="2"/>
    <connection from="-107907" to="107911" fromLane="3" toLane="3"/>

    <connection from="-107908" to="-107934" fromLane="0" toLane="0"/>
    <connection from="-107908" to="-107934" fromLane="0" toLane="1"/>
    <connection from="-107908" to="-83087" fromLane="1" toLane="0"/>
    <connection from="-107908" to="-83087" fromLane="2" toLane="1"/>
    <connection from="-107908" to="83088" fromLane="4" toLane="3"/>
    <connection from="-107908" to="107908" fromLane="5" toLane="5"/>

    <connection from="-107911" to="107907" fromLane="0" toLane="0"/>
    <connection from="-107911" to="107907" fromLane="1" toLane="1"/>
    <connection from="-107911" to="107907" fromLane="2" toLane="2"/>
    <connection from="-107911" to="107907" fromLane="3" toLane="3"/>
    <connection from="-107911" to="107907" fromLane="3" toLane="4"/>
    <connection from="-107911" to="107907" fromLane="3" toLane="5"/>

    <connection from="-107912" to="107914" fromLane="0" toLane="0"/>
    <connection from="-107912" to="107914" fromLane="0" toLane="1"/>
    <connection from="-107912" to="-107911" fromLane="1" toLane="1"/>
    <connection from="-107912" to="-107911" fromLane="2" toLane="2"/>
    <connection from="-107912" to="-107911" fromLane="3" toLane="3"/>
    <connection from="-107912" to="107912" fromLane="3" toLane="3"/>

    <connection from="-107913" to="107902" fromLane="0" toLane="0"/>
    <connection from="-107913" to="-107912" fromLane="0" toLane="0"/>
    <connection from="-107913" to="-107912" fromLane="1" toLane="1"/>
    <connection from="-107913" to="-107912" fromLane="2" toLane="2"/>
    <connection from="-107913" to="-107912" fromLane="3" toLane="3"/>
    <connection from="-107913" to="-107901" fromLane="3" toLane="3"/>
    <connection from="-107913" to="107913" fromLane="3" toLane="3"/>

    <connection from="-107914" to="-107911" fromLane="0" toLane="0"/>
    <connection from="-107914" to="-107911" fromLane="1" toLane="1"/>
    <connection from="-107914" to="-107911" fromLane="2" toLane="2"/>
    <connection from="-107914" to="-107911" fromLane="3" toLane="3"/>
    <connection from="-107914" to="107912" fromLane="3" toLane="2"/>
    <connection from="-107914" to="107912" fromLane="3" toLane="3"/>
    <connection from="-107914" to="107914" fromLane="3" toLane="3"/>

    <connection from="-107915" to="-107914" fromLane="0" toLane="0"/>
    <connection from="-107915" to="-107914" fromLane="1" toLane="1"/>
    <connection from="-107915" to="-107914" fromLane="2" toLane="2"/>
    <connection from="-107915" to="-107914" fromLane="3" toLane="3"/>
    <connection from="-107915" to="-83071" fromLane="3" toLane="1"/>
    <connection from="-107915" to="107915" fromLane="3" toLane="3"/>

    <connection from="-107916" to="-83069" fromLane="0" toLane="0"/>
    <connection from="-107916" to="-107915" fromLane="0" toLane="0"/>
    <connection from="-107916" to="-107915" fromLane="1" toLane="1"/>
    <connection from="-107916" to="-107915" fromLane="2" toLane="2"/>
    <connection from="-107916" to="-107915" fromLane="3" toLane="3"/>
    <connection from="-107916" to="83089" fromLane="3" toLane="1"/>
    <connection from="-107916" to="107916" fromLane="3" toLane="3"/>

    <connection from="-107928" to="-87390" fromLane="0" toLane="0"/>
    <connection from="-107928" to="-87390" fromLane="0" toLane="1"/>
    <connection from="-107928" to="-87390" fromLane="0" toLane="2"/>
    <connection from="-107928" to="-87390" fromLane="0" toLane="3"/>
    <connection from="-107928" to="87391" fromLane="1" toLane="2"/>
    <connection from="-107928" to="87391" fromLane="2" toLane="3"/>
    <connection from="-107928" to="87391" fromLane="3" toLane="4"/>
    <connection from="-107928" to="87391" fromLane="3" toLane="5"/>
    <connection from="-107928" to="107928" fromLane="3" toLane="3"/>

    <connection from="-107929" to="-109232" fromLane="0" toLane="0"/>
    <connection from="-107929" to="-109232" fromLane="1" toLane="1"/>
    <connection from="-107929" to="-109232" fromLane="2" toLane="2"/>
    <connection from="-107929" to="-109232" fromLane="3" toLane="3"/>

    <connection from="-107930" to="-95800" fromLane="0" toLane="0"/>
    <connection from="-107930" to="-107929" fromLane="0" toLane="0"/>
    <connection from="-107930" to="-107929" fromLane="1" toLane="1"/>
    <connection from="-107930" to="-107929" fromLane="2" toLane="2"/>
    <connection from="-107930" to="-107929" fromLane="3" toLane="3"/>
    <connection from="-107930" to="83056" fromLane="3" toLane="3"/>
    <connection from="-107930" to="107930" fromLane="3" toLane="3"/>

    <connection from="-107931" to="-95801" fromLane="0" toLane="0"/>
    <connection from="-107931" to="-107930" fromLane="0" toLane="1"/>
    <connection from="-107931" to="-107930" fromLane="1" toLane="2"/>
    <connection from="-107931" to="-107930" fromLane="1" toLane="3"/>
    <connection from="-107931" to="83044" fromLane="1" toLane="3"/>
    <connection from="-107931" to="107931" fromLane="1" toLane="1"/>

    <connection from="-107932" to="-87386" fromLane="0" toLane="0"/>
    <connection from="-107932" to="-107931" fromLane="0" toLane="0"/>
    <connection from="-107932" to="-107931" fromLane="1" toLane="1"/>
    <connection from="-107932" to="107932" fromLane="1" toLane="1"/>

    <connection from="-107933" to="-107932" fromLane="0" toLane="0"/>
    <connection from="-107933" to="-107932" fromLane="1" toLane="1"/>
    <connection from="-107933" to="83041" fromLane="1" toLane="1"/>
    <connection from="-107933" to="107933" fromLane="1" toLane="1"/>

    <connection from="-107934" to="-107935" fromLane="0" toLane="0"/>
    <connection from="-107934" to="-107935" fromLane="1" toLane="1"/>
    <connection from="-107934" to="-107935" fromLane="2" toLane="2"/>
    <connection from="-107934" to="-107935" fromLane="3" toLane="3"/>
    <connection from="-107934" to="-107935" fromLane="3" toLane="4"/>
    <connection from="-107934" to="-107939" fromLane="4" toLane="2"/>
    <connection from="-107934" to="-107939" fromLane="5" toLane="3"/>
    <connection from="-107934" to="107934" fromLane="5" toLane="5"/>

    <connection from="-107935" to="-87391" fromLane="0" toLane="0"/>
    <connection from="-107935" to="-87391" fromLane="1" toLane="1"/>
    <connection from="-107935" to="-87391" fromLane="2" toLane="2"/>
    <connection from="-107935" to="-87391" fromLane="3" toLane="3"/>
    <connection from="-107935" to="-87391" fromLane="4" toLane="4"/>
    <connection from="-107935" to="-87391" fromLane="5" toLane="5"/>

    <connection from="-107936" to="107939" fromLane="0" toLane="0"/>
    <connection from="-107936" to="107939" fromLane="1" toLane="1"/>
    <connection from="-107936" to="107939" fromLane="2" toLane="2"/>
    <connection from="-107936" to="107939" fromLane="3" toLane="3"/>

    <connection from="-107937" to="-107936" fromLane="0" toLane="0"/>
    <connection from="-107937" to="-107936" fromLane="1" toLane="1"/>
    <connection from="-107937" to="-107936" fromLane="1" toLane="2"/>
    <connection from="-107937" to="-107938" fromLane="1" toLane="1"/>
    <connection from="-107937" to="107937" fromLane="1" toLane="1"/>

    <connection from="-107938" to="83058" fromLane="0" toLane="0"/>
    <connection from="-107938" to="83058" fromLane="1" toLane="1"/>

    <connection from="-107939" to="107936" fromLane="0" toLane="0"/>
    <connection from="-107939" to="107936" fromLane="1" toLane="1"/>
    <connection from="-107939" to="107936" fromLane="2" toLane="2"/>
    <connection from="-107939" to="107936" fromLane="3" toLane="3"/>

    <connection from="-108023" to="83116" fromLane="0" toLane="0"/>
    <connection from="-108023" to="-83117" fromLane="0" toLane="0"/>
    <connection from="-108023" to="-83117" fromLane="1" toLane="1"/>
    <connection from="-108023" to="-83117" fromLane="2" toLane="2"/>
    <connection from="-108023" to="-83117" fromLane="3" toLane="3"/>
    <connection from="-108023" to="108023" fromLane="3" toLane="3"/>

    <connection from="-108024" to="108025" fromLane="0" toLane="0"/>
    <connection from="-108024" to="-108023" fromLane="0" toLane="0"/>
    <connection from="-108024" to="-108023" fromLane="1" toLane="1"/>
    <connection from="-108024" to="-108023" fromLane="2" toLane="2"/>
    <connection from="-108024" to="-108023" fromLane="3" toLane="3"/>
    <connection from="-108024" to="108027" fromLane="3" toLane="0"/>
    <connection from="-108024" to="108024" fromLane="3" toLane="3"/>

    <connection from="-108025" to="-108023" fromLane="0" toLane="0"/>
    <connection from="-108025" to="108027" fromLane="1" toLane="0"/>
    <connection from="-108025" to="108024" fromLane="2" toLane="3"/>
    <connection from="-108025" to="108025" fromLane="3" toLane="3"/>

    <connection from="-108048" to="-120325" fromLane="0" toLane="0"/>
    <connection from="-108048" to="-120325" fromLane="1" toLane="1"/>
    <connection from="-108048" to="-120325" fromLane="2" toLane="2"/>
    <connection from="-108048" to="-120325" fromLane="3" toLane="3"/>
    <connection from="-108048" to="-120325" fromLane="3" toLane="4"/>
    <connection from="-108048" to="118014" fromLane="4" toLane="0"/>
    <connection from="-108048" to="118014" fromLane="5" toLane="1"/>
    <connection from="-108048" to="108048" fromLane="5" toLane="5"/>

    <connection from="-108050" to="99508" fromLane="0" toLane="0"/>
    <connection from="-108050" to="-83844" fromLane="1" toLane="0"/>
    <connection from="-108050" to="-83844" fromLane="2" toLane="1"/>
    <connection from="-108050" to="-83844" fromLane="3" toLane="2"/>
    <connection from="-108050" to="-83844" fromLane="4" toLane="3"/>
    <connection from="-108050" to="108050" fromLane="5" toLane="5"/>

    <connection from="-108509" to="108507" fromLane="0" toLane="0"/>
    <connection from="-108509" to="108507" fromLane="1" toLane="1"/>
    <connection from="-108509" to="108509" fromLane="3" toLane="3"/>

    <connection from="-108510" to="-108509" fromLane="0" toLane="0"/>
    <connection from="-108510" to="-108509" fromLane="1" toLane="1"/>
    <connection from="-108510" to="-108509" fromLane="2" toLane="2"/>
    <connection from="-108510" to="-108509" fromLane="3" toLane="3"/>
    <connection from="-108510" to="108510" fromLane="3" toLane="3"/>

    <connection from="-108511" to="-108510" fromLane="0" toLane="0"/>
    <connection from="-108511" to="-108510" fromLane="1" toLane="1"/>
    <connection from="-108511" to="-108510" fromLane="2" toLane="2"/>
    <connection from="-108511" to="-108510" fromLane="3" toLane="3"/>

    <connection from="-108576" to="-83767" fromLane="0" toLane="0"/>
    <connection from="-108576" to="-83767" fromLane="1" toLane="1"/>
    <connection from="-108576" to="-83767" fromLane="2" toLane="2"/>
    <connection from="-108576" to="-83767" fromLane="3" toLane="3"/>
    <connection from="-108576" to="108576" fromLane="3" toLane="3"/>

    <connection from="-108578" to="108577" fromLane="0" toLane="0"/>
    <connection from="-108578" to="-108576" fromLane="1" toLane="0"/>
    <connection from="-108578" to="-108576" fromLane="1" toLane="1"/>
    <connection from="-108578" to="-108576" fromLane="1" toLane="2"/>
    <connection from="-108578" to="-108576" fromLane="1" toLane="3"/>
    <connection from="-108578" to="108578" fromLane="1" toLane="1"/>

    <connection from="-108579" to="-108578" fromLane="0" toLane="0"/>
    <connection from="-108579" to="-108578" fromLane="1" toLane="1"/>
    <connection from="-108579" to="83787" fromLane="1" toLane="2"/>
    <connection from="-108579" to="83787" fromLane="1" toLane="3"/>
    <connection from="-108579" to="108579" fromLane="1" toLane="1"/>

    <connection from="-109202" to="-107928" fromLane="0" toLane="0"/>
    <connection from="-109202" to="-107928" fromLane="1" toLane="1"/>
    <connection from="-109202" to="-107928" fromLane="2" toLane="2"/>
    <connection from="-109202" to="-107928" fromLane="3" toLane="3"/>

    <connection from="-109232" to="99888" fromLane="0" toLane="0"/>
    <connection from="-109232" to="-109241" fromLane="0" toLane="0"/>
    <connection from="-109232" to="-109241" fromLane="1" toLane="1"/>
    <connection from="-109232" to="-109241" fromLane="2" toLane="2"/>
    <connection from="-109232" to="-109241" fromLane="3" toLane="3"/>
    <connection from="-109232" to="109232" fromLane="3" toLane="3"/>

    <connection from="-109241" to="-109202" fromLane="0" toLane="0"/>
    <connection from="-109241" to="-109202" fromLane="1" toLane="1"/>
    <connection from="-109241" to="-109202" fromLane="2" toLane="2"/>
    <connection from="-109241" to="-109202" fromLane="3" toLane="3"/>
    <connection from="-109241" to="109242" fromLane="3" toLane="1"/>
    <connection from="-109241" to="109241" fromLane="3" toLane="3"/>

    <connection from="-109933" to="-109934" fromLane="0" toLane="1"/>
    <connection from="-109933" to="-109934" fromLane="1" toLane="2"/>
    <connection from="-109933" to="-109934" fromLane="2" toLane="3"/>
    <connection from="-109933" to="-109934" fromLane="3" toLane="4"/>
    <connection from="-109933" to="109933" fromLane="3" toLane="3"/>

    <connection from="-109934" to="99678" fromLane="0" toLane="0"/>
    <connection from="-109934" to="-83463" fromLane="3" toLane="0"/>
    <connection from="-109934" to="-83463" fromLane="4" toLane="1"/>
    <connection from="-109934" to="-83463" fromLane="4" toLane="2"/>
    <connection from="-109934" to="-83463" fromLane="4" toLane="3"/>
    <connection from="-109934" to="109934" fromLane="4" toLane="4"/>

    <connection from="-109946" to="83223" fromLane="0" toLane="0"/>
    <connection from="-109946" to="83223" fromLane="1" toLane="1"/>
    <connection from="-109946" to="83223" fromLane="2" toLane="2"/>
    <connection from="-109946" to="83223" fromLane="3" toLane="3"/>
    <connection from="-109946" to="83223" fromLane="3" toLane="4"/>
    <connection from="-109946" to="113091" fromLane="4" toLane="1"/>
    <connection from="-109946" to="113091" fromLane="5" toLane="2"/>
    <connection from="-109946" to="109946" fromLane="5" toLane="5"/>

    <connection from="-112285" to="83618" fromLane="0" toLane="0"/>
    <connection from="-112285" to="83618" fromLane="0" toLane="1"/>
    <connection from="-112285" to="-94701" fromLane="1" toLane="2"/>
    <connection from="-112285" to="-94701" fromLane="1" toLane="3"/>
    <connection from="-112285" to="112285" fromLane="1" toLane="1"/>

    <connection from="-112287" to="-112288" fromLane="0" toLane="0"/>
    <connection from="-112287" to="-112288" fromLane="1" toLane="1"/>
    <connection from="-112287" to="-112288" fromLane="2" toLane="2"/>
    <connection from="-112287" to="-112288" fromLane="3" toLane="3"/>

    <connection from="-112288" to="-108511" fromLane="0" toLane="0"/>
    <connection from="-112288" to="-95611" fromLane="0" toLane="0"/>
    <connection from="-112288" to="-95611" fromLane="1" toLane="1"/>
    <connection from="-112288" to="-95611" fromLane="2" toLane="2"/>
    <connection from="-112288" to="-95611" fromLane="3" toLane="3"/>
    <connection from="-112288" to="83451" fromLane="3" toLane="3"/>
    <connection from="-112288" to="112288" fromLane="3" toLane="3"/>

    <connection from="-112420" to="115487" fromLane="0" toLane="0"/>
    <connection from="-112420" to="115487" fromLane="1" toLane="1"/>
    <connection from="-112420" to="-115500" fromLane="1" toLane="1"/>
    <connection from="-112420" to="112420" fromLane="1" toLane="1"/>

    <connection from="-113069" to="-86926" fromLane="0" toLane="0"/>
    <connection from="-113069" to="-86926" fromLane="1" toLane="1"/>

    <connection from="-113081" to="113082" fromLane="0" toLane="0"/>
    <connection from="-113081" to="113082" fromLane="1" toLane="1"/>
    <connection from="-113081" to="113082" fromLane="2" toLane="2"/>
    <connection from="-113081" to="113081" fromLane="5" toLane="5"/>

    <connection from="-113090" to="-83221" fromLane="0" toLane="2"/>
    <connection from="-113090" to="-83221" fromLane="1" toLane="3"/>
    <connection from="-113090" to="-83221" fromLane="2" toLane="4"/>
    <connection from="-113090" to="-83221" fromLane="3" toLane="5"/>
    <connection from="-113090" to="113093" fromLane="4" toLane="1"/>
    <connection from="-113090" to="113093" fromLane="5" toLane="2"/>
    <connection from="-113090" to="113090" fromLane="5" toLane="5"/>

    <connection from="-113094" to="113095" fromLane="0" toLane="0"/>
    <connection from="-113094" to="113095" fromLane="1" toLane="1"/>
    <connection from="-113094" to="113095" fromLane="2" toLane="2"/>
    <connection from="-113094" to="113095" fromLane="3" toLane="3"/>

    <connection from="-113095" to="113094" fromLane="0" toLane="0"/>
    <connection from="-113095" to="113094" fromLane="1" toLane="1"/>
    <connection from="-113095" to="113094" fromLane="2" toLane="2"/>
    <connection from="-113095" to="113094" fromLane="3" toLane="3"/>

    <connection from="-113096" to="-113097" fromLane="0" toLane="0"/>
    <connection from="-113096" to="-113097" fromLane="1" toLane="1"/>
    <connection from="-113096" to="-113097" fromLane="2" toLane="2"/>
    <connection from="-113096" to="-113097" fromLane="3" toLane="3"/>

    <connection from="-113097" to="-113095" fromLane="0" toLane="0"/>
    <connection from="-113097" to="-113095" fromLane="1" toLane="1"/>
    <connection from="-113097" to="-113095" fromLane="2" toLane="2"/>
    <connection from="-113097" to="-113095" fromLane="3" toLane="3"/>

    <connection from="-113098" to="-83159" fromLane="0" toLane="0"/>
    <connection from="-113098" to="-83159" fromLane="1" toLane="1"/>
    <connection from="-113098" to="-83159" fromLane="2" toLane="2"/>
    <connection from="-113098" to="-83159" fromLane="3" toLane="3"/>

    <connection from="-113099" to="-109946" fromLane="0" toLane="0"/>
    <connection from="-113099" to="-109946" fromLane="1" toLane="1"/>
    <connection from="-113099" to="-109946" fromLane="2" toLane="2"/>
    <connection from="-113099" to="-109946" fromLane="3" toLane="3"/>
    <connection from="-113099" to="-109946" fromLane="4" toLane="4"/>
    <connection from="-113099" to="-109946" fromLane="4" toLane="5"/>

    <connection from="-113694" to="-86695" fromLane="0" toLane="0"/>
    <connection from="-113694" to="-113719" fromLane="0" toLane="0"/>
    <connection from="-113694" to="-113719" fromLane="1" toLane="1"/>
    <connection from="-113694" to="-113719" fromLane="2" toLane="2"/>
    <connection from="-113694" to="-113719" fromLane="3" toLane="3"/>
    <connection from="-113694" to="113695" fromLane="3" toLane="3"/>
    <connection from="-113694" to="113694" fromLane="3" toLane="3"/>

    <connection from="-113695" to="113694" fromLane="0" toLane="0"/>
    <connection from="-113695" to="-86695" fromLane="0" toLane="0"/>
    <connection from="-113695" to="-86695" fromLane="1" toLane="1"/>
    <connection from="-113695" to="-86695" fromLane="2" toLane="2"/>
    <connection from="-113695" to="-86695" fromLane="3" toLane="3"/>
    <connection from="-113695" to="-113719" fromLane="3" toLane="3"/>
    <connection from="-113695" to="113695" fromLane="3" toLane="3"/>

    <connection from="-113699" to="-113710" fromLane="0" toLane="0"/>
    <connection from="-113699" to="-113710" fromLane="1" toLane="1"/>

    <connection from="-113710" to="-83894" fromLane="0" toLane="0"/>
    <connection from="-113710" to="-83894" fromLane="1" toLane="1"/>

    <connection from="-113711" to="113716" fromLane="0" toLane="0"/>
    <connection from="-113711" to="113711" fromLane="3" toLane="3"/>

    <connection from="-113717" to="113712" fromLane="0" toLane="0"/>
    <connection from="-113717" to="-113711" fromLane="0" toLane="0"/>
    <connection from="-113717" to="-113711" fromLane="1" toLane="1"/>
    <connection from="-113717" to="-113711" fromLane="2" toLane="2"/>
    <connection from="-113717" to="-113711" fromLane="3" toLane="3"/>
    <connection from="-113717" to="113717" fromLane="3" toLane="3"/>

    <connection from="-113719" to="-113717" fromLane="0" toLane="0"/>
    <connection from="-113719" to="-113717" fromLane="1" toLane="1"/>
    <connection from="-113719" to="-113717" fromLane="2" toLane="2"/>
    <connection from="-113719" to="-113717" fromLane="3" toLane="3"/>

    <connection from="-114236" to="114237" fromLane="0" toLane="0"/>
    <connection from="-114236" to="-114242" fromLane="0" toLane="0"/>
    <connection from="-114236" to="-114242" fromLane="1" toLane="1"/>
    <connection from="-114236" to="-114242" fromLane="2" toLane="2"/>
    <connection from="-114236" to="-114242" fromLane="3" toLane="3"/>
    <connection from="-114236" to="-114242" fromLane="4" toLane="4"/>
    <connection from="-114236" to="-114242" fromLane="5" toLane="5"/>
    <connection from="-114236" to="114236" fromLane="5" toLane="5"/>

    <connection from="-114237" to="-114242" fromLane="0" toLane="0"/>
    <connection from="-114237" to="-114242" fromLane="0" toLane="1"/>
    <connection from="-114237" to="-114242" fromLane="0" toLane="2"/>
    <connection from="-114237" to="-114242" fromLane="0" toLane="3"/>